REMARK  12 active torsions:
REMARK  status: ('A' for Active; 'I' for Inactive)
REMARK    1  A    between atoms: C1_2  and  C2_3 
REMARK       I    between atoms: C1_2  and  N1_10 
REMARK    2  A    between atoms: C2_3  and  C3_4 
REMARK    3  A    between atoms: N1_10  and  C9_11 
REMARK    4  A    between atoms: C10_14  and  C11_15 
REMARK    5  A    between atoms: C11_15  and  C12_16 
REMARK    6  A    between atoms: C12_16  and  S1_17 
REMARK    7  A    between atoms: S1_17  and  C13_18 
REMARK    8  A    between atoms: C13_18  and  C14_19 
REMARK    9  A    between atoms: C14_19  and  C15_20 
REMARK   10  A    between atoms: C16_23  and  N6_24 
REMARK       I    between atoms: N6_24  and  C17_25 
REMARK   11  A    between atoms: C17_25  and  C18_27 
REMARK   12  A    between atoms: C18_27  and  C19_28 
ROOT
HETATM    1  S1  04A     1       1.218  -8.516  45.331  1.00 49.59    -0.168 SA
ENDROOT
BRANCH   1   2
HETATM    2  C12 04A     1       2.105 -10.060  44.983  1.00 51.84     0.080 C 
BRANCH   2   3
HETATM    3  C11 04A     1       3.588  -9.885  44.921  1.00 53.50     0.079 C 
BRANCH   3   4
HETATM    4  C10 04A     1       4.137  -9.027  46.064  1.00 55.63     0.101 A 
HETATM    5  N3  04A     1       3.832  -9.090  47.404  1.00 54.52    -0.145 NA
HETATM    6  N2  04A     1       4.480  -8.198  48.170  1.00 51.72    -0.123 NA
HETATM    7  C9  04A     1       5.304  -7.425  47.431  1.00 56.18     0.196 A 
HETATM    8  S3  04A     1       5.232  -7.869  45.733  1.00 54.65    -0.033 SA
BRANCH   7   9
HETATM    9  N1  04A     1       6.136  -6.529  47.942  1.00 57.11    -0.304 N 
HETATM   10  C1  04A     1       7.002  -5.839  47.176  1.00 61.18     0.227 C 
HETATM   11  O1  04A     1       6.985  -5.758  45.940  1.00 62.65    -0.273 OA
HETATM   12  H8  04A     1       6.120  -6.355  48.957  1.00  0.00     0.171 HD
BRANCH  10  13
HETATM   13  C2  04A     1       7.994  -5.038  48.023  1.00 64.06     0.141 C 
BRANCH  13  14
HETATM   14  C3  04A     1       8.323  -3.833  47.477  1.00 65.82    -0.050 A 
HETATM   15  C4  04A     1       7.421  -2.784  47.552  1.00 68.40     0.007 A 
HETATM   16  C5  04A     1       7.773  -1.559  46.987  1.00 71.17     0.001 A 
HETATM   17  C6  04A     1       9.022  -1.396  46.376  1.00 71.06     0.000 A 
HETATM   18  C7  04A     1       9.932  -2.456  46.325  1.00 70.44     0.001 A 
HETATM   19  C8  04A     1       9.577  -3.685  46.881  1.00 69.17     0.007 A 
ENDBRANCH  13  14
ENDBRANCH  10  13
ENDBRANCH   7   9
ENDBRANCH   3   4
ENDBRANCH   2   3
ENDBRANCH   1   2
BRANCH   1  20
HETATM   20  C13 04A     1       0.124  -9.266  46.572  1.00 52.04     0.080 C 
BRANCH  20  21
HETATM   21  C14 04A     1      -1.016 -10.053  45.941  1.00 55.91     0.079 C 
BRANCH  21  22
HETATM   22  C15 04A     1      -1.697  -9.167  44.881  1.00 59.63     0.101 A 
HETATM   23  N4  04A     1      -1.498  -9.276  43.543  1.00 59.45    -0.145 NA
HETATM   24  N5  04A     1      -2.212  -8.367  42.764  1.00 61.70    -0.123 NA
HETATM   25  C16 04A     1      -2.982  -7.514  43.466  1.00 65.04     0.196 A 
HETATM   26  S2  04A     1      -2.766  -7.921  45.238  1.00 59.63    -0.033 SA
BRANCH  25  27
HETATM   27  N6  04A     1      -3.769  -6.582  42.876  1.00 69.91    -0.304 N 
HETATM   28  C17 04A     1      -4.769  -5.998  43.570  1.00 76.98     0.227 C 
HETATM   29  O2  04A     1      -4.961  -6.209  44.769  1.00 78.52    -0.273 OA
HETATM   30  H17 04A     1      -3.604  -6.318  41.894  1.00  0.00     0.171 HD
BRANCH  28  31
HETATM   31  C18 04A     1      -5.709  -5.029  42.784  1.00 81.57     0.141 C 
BRANCH  31  32
HETATM   32  C19 04A     1      -7.076  -5.166  43.216  1.00 87.14    -0.050 A 
HETATM   33  C20 04A     1      -7.882  -4.030  43.441  1.00 89.62     0.007 A 
HETATM   34  C21 04A     1      -9.217  -4.169  43.882  1.00 91.47     0.001 A 
HETATM   35  C22 04A     1      -9.795  -5.431  44.114  1.00 91.51     0.000 A 
HETATM   36  C23 04A     1      -9.009  -6.565  43.902  1.00 90.74     0.001 A 
HETATM   37  C24 04A     1      -7.676  -6.425  43.455  1.00 89.16     0.007 A 
ENDBRANCH  31  32
ENDBRANCH  28  31
ENDBRANCH  25  27
ENDBRANCH  21  22
ENDBRANCH  20  21
ENDBRANCH   1  20
TORSDOF 12
