MODEL 1
REMARK VINA RESULT:      -8.2      0.000      0.000
REMARK  12 active torsions:
REMARK  status: ('A' for Active; 'I' for Inactive)
REMARK    1  A    between atoms: C1_2  and  C2_3 
REMARK       I    between atoms: C1_2  and  N1_10 
REMARK    2  A    between atoms: C2_3  and  C3_4 
REMARK    3  A    between atoms: N1_10  and  C9_11 
REMARK    4  A    between atoms: C10_14  and  C11_15 
REMARK    5  A    between atoms: C11_15  and  C12_16 
REMARK    6  A    between atoms: C12_16  and  S1_17 
REMARK    7  A    between atoms: S1_17  and  C13_18 
REMARK    8  A    between atoms: C13_18  and  C14_19 
REMARK    9  A    between atoms: C14_19  and  C15_20 
REMARK   10  A    between atoms: C16_23  and  N6_24 
REMARK       I    between atoms: N6_24  and  C17_25 
REMARK   11  A    between atoms: C17_25  and  C18_27 
REMARK   12  A    between atoms: C18_27  and  C19_28 
ROOT
HETATM    1  S1  04A     1       7.082  -8.247  33.785  1.00 49.59    -0.168 SA
ENDROOT
BRANCH   1   2
HETATM    2  C12 04A     1       6.441  -7.347  35.224  1.00 51.84     0.080 C 
BRANCH   2   3
HETATM    3  C11 04A     1       5.024  -6.904  35.057  1.00 53.50     0.079 C 
BRANCH   3   4
HETATM    4  C10 04A     1       4.855  -5.837  33.971  1.00 55.63     0.101 A 
HETATM    5  N3  04A     1       3.843  -5.707  33.049  1.00 54.52    -0.145 NA
HETATM    6  N2  04A     1       3.971  -4.661  32.217  1.00 51.72    -0.123 NA
HETATM    7  C9  04A     1       5.093  -3.959  32.484  1.00 56.18     0.196 A 
HETATM    8  S3  04A     1       5.977  -4.666  33.827  1.00 54.65    -0.033 SA
BRANCH   7   9
HETATM    9  N1  04A     1       5.417  -2.823  31.882  1.00 57.11    -0.304 N 
HETATM   10  C1  04A     1       4.847  -1.650  32.215  1.00 61.18     0.227 C 
HETATM   11  O1  04A     1       4.168  -1.424  33.226  1.00 62.65    -0.273 OA
HETATM   12  H8  04A     1       6.126  -2.839  31.136  1.00  0.00     0.171 HD
BRANCH  10  13
HETATM   13  C2  04A     1       5.225  -0.538  31.233  1.00 64.06     0.141 C 
BRANCH  13  14
HETATM   14  C3  04A     1       4.873   0.707  31.663  1.00 65.82    -0.050 A 
HETATM   15  C4  04A     1       5.732   1.406  32.497  1.00 68.40     0.007 A 
HETATM   16  C5  04A     1       5.355   2.677  32.928  1.00 71.17     0.001 A 
HETATM   17  C6  04A     1       4.143   3.236  32.507  1.00 71.06     0.000 A 
HETATM   18  C7  04A     1       3.295   2.529  31.649  1.00 70.44     0.001 A 
HETATM   19  C8  04A     1       3.666   1.253  31.224  1.00 69.17     0.007 A 
ENDBRANCH  13  14
ENDBRANCH  10  13
ENDBRANCH   7   9
ENDBRANCH   3   4
ENDBRANCH   2   3
ENDBRANCH   1   2
BRANCH   1  20
HETATM   20  C13 04A     1       7.743  -9.623  34.770  1.00 52.04     0.080 C 
BRANCH  20  21
HETATM   21  C14 04A     1       7.447 -10.979  34.146  1.00 55.91     0.079 C 
BRANCH  21  22
HETATM   22  C15 04A     1       8.214 -12.059  34.930  1.00 59.63     0.101 A 
HETATM   23  N4  04A     1       7.803 -12.593  36.108  1.00 59.45    -0.145 NA
HETATM   24  N5  04A     1       8.656 -13.554  36.650  1.00 61.70    -0.123 NA
HETATM   25  C16 04A     1       9.762 -13.795  35.920  1.00 65.04     0.196 A 
HETATM   26  S2  04A     1       9.685 -12.711  34.446  1.00 59.63    -0.033 SA
BRANCH  25  27
HETATM   27  N6  04A     1      10.688 -14.718  36.275  1.00 69.91    -0.304 N 
HETATM   28  C17 04A     1      11.535 -14.474  37.298  1.00 76.98     0.227 C 
HETATM   29  O2  04A     1      11.458 -13.464  38.001  1.00 78.52    -0.273 OA
HETATM   30  H17 04A     1      10.746 -15.610  35.763  1.00  0.00     0.171 HD
BRANCH  28  31
HETATM   31  C18 04A     1      12.653 -15.531  37.563  1.00 81.57     0.141 C 
BRANCH  31  32
HETATM   32  C19 04A     1      12.137 -16.664  38.287  1.00 87.14    -0.050 A 
HETATM   33  C20 04A     1      11.443 -16.491  39.504  1.00 89.62     0.007 A 
HETATM   34  C21 04A     1      10.954 -17.607  40.220  1.00 91.47     0.001 A 
HETATM   35  C22 04A     1      11.135 -18.924  39.757  1.00 91.51     0.000 A 
HETATM   36  C23 04A     1      11.825 -19.112  38.558  1.00 90.74     0.001 A 
HETATM   37  C24 04A     1      12.308 -17.995  37.840  1.00 89.16     0.007 A 
ENDBRANCH  31  32
ENDBRANCH  28  31
ENDBRANCH  25  27
ENDBRANCH  21  22
ENDBRANCH  20  21
ENDBRANCH   1  20
TORSDOF 12
ENDMDL
MODEL 2
REMARK VINA RESULT:      -8.1      1.724     15.820
REMARK  12 active torsions:
REMARK  status: ('A' for Active; 'I' for Inactive)
REMARK    1  A    between atoms: C1_2  and  C2_3 
REMARK       I    between atoms: C1_2  and  N1_10 
REMARK    2  A    between atoms: C2_3  and  C3_4 
REMARK    3  A    between atoms: N1_10  and  C9_11 
REMARK    4  A    between atoms: C10_14  and  C11_15 
REMARK    5  A    between atoms: C11_15  and  C12_16 
REMARK    6  A    between atoms: C12_16  and  S1_17 
REMARK    7  A    between atoms: S1_17  and  C13_18 
REMARK    8  A    between atoms: C13_18  and  C14_19 
REMARK    9  A    between atoms: C14_19  and  C15_20 
REMARK   10  A    between atoms: C16_23  and  N6_24 
REMARK       I    between atoms: N6_24  and  C17_25 
REMARK   11  A    between atoms: C17_25  and  C18_27 
REMARK   12  A    between atoms: C18_27  and  C19_28 
ROOT
HETATM    1  S1  04A     1       9.477  -9.214  34.666  1.00 49.59    -0.168 SA
ENDROOT
BRANCH   1   2
HETATM    2  C12 04A     1       9.041  -9.843  36.311  1.00 51.84     0.080 C 
BRANCH   2   3
HETATM    3  C11 04A     1       8.256 -11.114  36.265  1.00 53.50     0.079 C 
BRANCH   3   4
HETATM    4  C10 04A     1       9.083 -12.342  36.656  1.00 55.63     0.101 A 
HETATM    5  N3  04A     1       8.677 -13.653  36.748  1.00 54.52    -0.145 NA
HETATM    6  N2  04A     1       9.638 -14.514  37.119  1.00 51.72    -0.123 NA
HETATM    7  C9  04A     1      10.812 -13.880  37.321  1.00 56.18     0.196 A 
HETATM    8  S3  04A     1      10.658 -12.156  37.022  1.00 54.65    -0.033 SA
BRANCH   7   9
HETATM    9  N1  04A     1      11.951 -14.498  37.599  1.00 57.11    -0.304 N 
HETATM   10  C1  04A     1      12.616 -15.218  36.676  1.00 61.18     0.227 C 
HETATM   11  O1  04A     1      12.416 -15.210  35.454  1.00 62.65    -0.273 OA
HETATM   12  H8  04A     1      12.339 -14.426  38.550  1.00  0.00     0.171 HD
BRANCH  10  13
HETATM   13  C2  04A     1      13.772 -16.007  37.298  1.00 64.06     0.141 C 
BRANCH  13  14
HETATM   14  C3  04A     1      13.361 -17.055  38.066  1.00 65.82    -0.050 A 
HETATM   15  C4  04A     1      13.957 -17.270  39.298  1.00 68.40     0.007 A 
HETATM   16  C5  04A     1      13.525 -18.348  40.070  1.00 71.17     0.001 A 
HETATM   17  C6  04A     1      12.497 -19.179  39.610  1.00 71.06     0.000 A 
HETATM   18  C7  04A     1      11.889 -18.940  38.374  1.00 70.44     0.001 A 
HETATM   19  C8  04A     1      12.327 -17.868  37.596  1.00 69.17     0.007 A 
ENDBRANCH  13  14
ENDBRANCH  10  13
ENDBRANCH   7   9
ENDBRANCH   3   4
ENDBRANCH   2   3
ENDBRANCH   1   2
BRANCH   1  20
HETATM   20  C13 04A     1       8.374  -7.776  34.775  1.00 52.04     0.080 C 
BRANCH  20  21
HETATM   21  C14 04A     1       6.964  -8.087  34.293  1.00 55.91     0.079 C 
BRANCH  21  22
HETATM   22  C15 04A     1       6.450  -6.892  33.469  1.00 59.63     0.101 A 
HETATM   23  N4  04A     1       6.800  -6.635  32.183  1.00 59.45    -0.145 NA
HETATM   24  N5  04A     1       6.222  -5.494  31.630  1.00 61.70    -0.123 NA
HETATM   25  C16 04A     1       5.412  -4.817  32.467  1.00 65.04     0.196 A 
HETATM   26  S2  04A     1       5.401  -5.720  34.060  1.00 59.63    -0.033 SA
BRANCH  25  27
HETATM   27  N6  04A     1       4.740  -3.701  32.093  1.00 69.91    -0.304 N 
HETATM   28  C17 04A     1       5.086  -2.498  32.598  1.00 76.98     0.227 C 
HETATM   29  O2  04A     1       6.059  -2.339  33.338  1.00 78.52    -0.273 OA
HETATM   30  H17 04A     1       3.963  -3.771  31.421  1.00  0.00     0.171 HD
BRANCH  28  31
HETATM   31  C18 04A     1       4.184  -1.281  32.217  1.00 81.57     0.141 C 
BRANCH  31  32
HETATM   32  C19 04A     1       4.974  -0.097  31.997  1.00 87.14    -0.050 A 
HETATM   33  C20 04A     1       4.956   0.968  32.922  1.00 89.62     0.007 A 
HETATM   34  C21 04A     1       5.719   2.135  32.693  1.00 91.47     0.001 A 
HETATM   35  C22 04A     1       6.521   2.285  31.546  1.00 91.51     0.000 A 
HETATM   36  C23 04A     1       6.545   1.243  30.617  1.00 90.74     0.001 A 
HETATM   37  C24 04A     1       5.786   0.074  30.851  1.00 89.16     0.007 A 
ENDBRANCH  31  32
ENDBRANCH  28  31
ENDBRANCH  25  27
ENDBRANCH  21  22
ENDBRANCH  20  21
ENDBRANCH   1  20
TORSDOF 12
ENDMDL
MODEL 3
REMARK VINA RESULT:      -8.1      4.866      6.136
REMARK  12 active torsions:
REMARK  status: ('A' for Active; 'I' for Inactive)
REMARK    1  A    between atoms: C1_2  and  C2_3 
REMARK       I    between atoms: C1_2  and  N1_10 
REMARK    2  A    between atoms: C2_3  and  C3_4 
REMARK    3  A    between atoms: N1_10  and  C9_11 
REMARK    4  A    between atoms: C10_14  and  C11_15 
REMARK    5  A    between atoms: C11_15  and  C12_16 
REMARK    6  A    between atoms: C12_16  and  S1_17 
REMARK    7  A    between atoms: S1_17  and  C13_18 
REMARK    8  A    between atoms: C13_18  and  C14_19 
REMARK    9  A    between atoms: C14_19  and  C15_20 
REMARK   10  A    between atoms: C16_23  and  N6_24 
REMARK       I    between atoms: N6_24  and  C17_25 
REMARK   11  A    between atoms: C17_25  and  C18_27 
REMARK   12  A    between atoms: C18_27  and  C19_28 
ROOT
HETATM    1  S1  04A     1       9.776 -10.483  35.144  1.00 49.59    -0.168 SA
ENDROOT
BRANCH   1   2
HETATM    2  C12 04A     1       9.096  -8.937  34.481  1.00 51.84     0.080 C 
BRANCH   2   3
HETATM    3  C11 04A     1       7.843  -9.137  33.690  1.00 53.50     0.079 C 
BRANCH   3   4
HETATM    4  C10 04A     1       6.879  -7.952  33.788  1.00 55.63     0.101 A 
HETATM    5  N3  04A     1       6.084  -7.581  34.848  1.00 54.52    -0.145 NA
HETATM    6  N2  04A     1       5.337  -6.486  34.634  1.00 51.72    -0.123 NA
HETATM    7  C9  04A     1       5.544  -5.987  33.397  1.00 56.18     0.196 A 
HETATM    8  S3  04A     1       6.718  -6.951  32.515  1.00 54.65    -0.033 SA
BRANCH   7   9
HETATM    9  N1  04A     1       5.012  -4.857  32.955  1.00 57.11    -0.304 N 
HETATM   10  C1  04A     1       5.603  -3.663  33.152  1.00 61.18     0.227 C 
HETATM   11  O1  04A     1       6.768  -3.475  33.528  1.00 62.65    -0.273 OA
HETATM   12  H8  04A     1       4.117  -4.892  32.445  1.00  0.00     0.171 HD
BRANCH  10  13
HETATM   13  C2  04A     1       4.690  -2.504  32.746  1.00 64.06     0.141 C 
BRANCH  13  14
HETATM   14  C3  04A     1       5.303  -1.584  31.949  1.00 65.82    -0.050 A 
HETATM   15  C4  04A     1       5.928  -2.003  30.785  1.00 68.40     0.007 A 
HETATM   16  C5  04A     1       6.552  -1.050  29.982  1.00 71.17     0.001 A 
HETATM   17  C6  04A     1       6.526   0.303  30.342  1.00 71.06     0.000 A 
HETATM   18  C7  04A     1       5.875   0.716  31.508  1.00 70.44     0.001 A 
HETATM   19  C8  04A     1       5.259  -0.238  32.318  1.00 69.17     0.007 A 
ENDBRANCH  13  14
ENDBRANCH  10  13
ENDBRANCH   7   9
ENDBRANCH   3   4
ENDBRANCH   2   3
ENDBRANCH   1   2
BRANCH   1  20
HETATM   20  C13 04A     1      11.268  -9.695  35.817  1.00 52.04     0.080 C 
BRANCH  20  21
HETATM   21  C14 04A     1      12.198  -9.185  34.725  1.00 55.91     0.079 C 
BRANCH  21  22
HETATM   22  C15 04A     1      13.324 -10.216  34.518  1.00 59.63     0.101 A 
HETATM   23  N4  04A     1      13.234 -11.302  33.710  1.00 59.45    -0.145 NA
HETATM   24  N5  04A     1      14.371 -12.108  33.676  1.00 61.70    -0.123 NA
HETATM   25  C16 04A     1      15.380 -11.684  34.461  1.00 65.04     0.196 A 
HETATM   26  S2  04A     1      14.816 -10.150  35.287  1.00 59.63    -0.033 SA
BRANCH  25  27
HETATM   27  N6  04A     1      16.572 -12.323  34.531  1.00 69.91    -0.304 N 
HETATM   28  C17 04A     1      16.794 -13.247  35.490  1.00 76.98     0.227 C 
HETATM   29  O2  04A     1      15.919 -13.613  36.278  1.00 78.52    -0.273 OA
HETATM   30  H17 04A     1      17.314 -12.104  33.850  1.00  0.00     0.171 HD
BRANCH  28  31
HETATM   31  C18 04A     1      18.233 -13.846  35.582  1.00 81.57     0.141 C 
BRANCH  31  32
HETATM   32  C19 04A     1      19.225 -12.806  35.674  1.00 87.14    -0.050 A 
HETATM   33  C20 04A     1      20.165 -12.608  34.640  1.00 89.62     0.007 A 
HETATM   34  C21 04A     1      21.147 -11.597  34.742  1.00 91.47     0.001 A 
HETATM   35  C22 04A     1      21.231 -10.754  35.866  1.00 91.51     0.000 A 
HETATM   36  C23 04A     1      20.312 -10.941  36.900  1.00 90.74     0.001 A 
HETATM   37  C24 04A     1      19.327 -11.948  36.794  1.00 89.16     0.007 A 
ENDBRANCH  31  32
ENDBRANCH  28  31
ENDBRANCH  25  27
ENDBRANCH  21  22
ENDBRANCH  20  21
ENDBRANCH   1  20
TORSDOF 12
ENDMDL
MODEL 4
REMARK VINA RESULT:      -8.0      1.686      2.330
REMARK  12 active torsions:
REMARK  status: ('A' for Active; 'I' for Inactive)
REMARK    1  A    between atoms: C1_2  and  C2_3 
REMARK       I    between atoms: C1_2  and  N1_10 
REMARK    2  A    between atoms: C2_3  and  C3_4 
REMARK    3  A    between atoms: N1_10  and  C9_11 
REMARK    4  A    between atoms: C10_14  and  C11_15 
REMARK    5  A    between atoms: C11_15  and  C12_16 
REMARK    6  A    between atoms: C12_16  and  S1_17 
REMARK    7  A    between atoms: S1_17  and  C13_18 
REMARK    8  A    between atoms: C13_18  and  C14_19 
REMARK    9  A    between atoms: C14_19  and  C15_20 
REMARK   10  A    between atoms: C16_23  and  N6_24 
REMARK       I    between atoms: N6_24  and  C17_25 
REMARK   11  A    between atoms: C17_25  and  C18_27 
REMARK   12  A    between atoms: C18_27  and  C19_28 
ROOT
HETATM    1  S1  04A     1       7.162  -7.874  33.420  1.00 49.59    -0.168 SA
ENDROOT
BRANCH   1   2
HETATM    2  C12 04A     1       6.397  -7.364  34.984  1.00 51.84     0.080 C 
BRANCH   2   3
HETATM    3  C11 04A     1       5.042  -6.758  34.806  1.00 53.50     0.079 C 
BRANCH   3   4
HETATM    4  C10 04A     1       5.042  -5.566  33.846  1.00 55.63     0.101 A 
HETATM    5  N3  04A     1       4.207  -5.326  32.779  1.00 54.52    -0.145 NA
HETATM    6  N2  04A     1       4.454  -4.185  32.117  1.00 51.72    -0.123 NA
HETATM    7  C9  04A     1       5.492  -3.516  32.665  1.00 56.18     0.196 A 
HETATM    8  S3  04A     1       6.141  -4.382  34.049  1.00 54.65    -0.033 SA
BRANCH   7   9
HETATM    9  N1  04A     1       5.888  -2.314  32.273  1.00 57.11    -0.304 N 
HETATM   10  C1  04A     1       5.062  -1.251  32.283  1.00 61.18     0.227 C 
HETATM   11  O1  04A     1       3.963  -1.180  32.850  1.00 62.65    -0.273 OA
HETATM   12  H8  04A     1       6.858  -2.189  31.951  1.00  0.00     0.171 HD
BRANCH  10  13
HETATM   13  C2  04A     1       5.687  -0.041  31.582  1.00 64.06     0.141 C 
BRANCH  13  14
HETATM   14  C3  04A     1       5.038   0.318  30.439  1.00 65.82    -0.050 A 
HETATM   15  C4  04A     1       4.037   1.274  30.498  1.00 68.40     0.007 A 
HETATM   16  C5  04A     1       3.382   1.628  29.319  1.00 71.17     0.001 A 
HETATM   17  C6  04A     1       3.748   1.039  28.103  1.00 71.06     0.000 A 
HETATM   18  C7  04A     1       4.774   0.091  28.053  1.00 70.44     0.001 A 
HETATM   19  C8  04A     1       5.423  -0.272  29.233  1.00 69.17     0.007 A 
ENDBRANCH  13  14
ENDBRANCH  10  13
ENDBRANCH   7   9
ENDBRANCH   3   4
ENDBRANCH   2   3
ENDBRANCH   1   2
BRANCH   1  20
HETATM   20  C13 04A     1       8.260  -9.094  34.198  1.00 52.04     0.080 C 
BRANCH  20  21
HETATM   21  C14 04A     1       7.786 -10.524  33.980  1.00 55.91     0.079 C 
BRANCH  21  22
HETATM   22  C15 04A     1       8.899 -11.486  34.437  1.00 59.63     0.101 A 
HETATM   23  N4  04A     1       9.867 -11.171  35.335  1.00 59.45    -0.145 NA
HETATM   24  N5  04A     1      10.780 -12.191  35.600  1.00 61.70    -0.123 NA
HETATM   25  C16 04A     1      10.561 -13.329  34.913  1.00 65.04     0.196 A 
HETATM   26  S2  04A     1       9.083 -13.055  33.867  1.00 59.63    -0.033 SA
BRANCH  25  27
HETATM   27  N6  04A     1      11.328 -14.436  35.065  1.00 69.91    -0.304 N 
HETATM   28  C17 04A     1      12.674 -14.335  35.070  1.00 76.98     0.227 C 
HETATM   29  O2  04A     1      13.262 -13.253  35.025  1.00 78.52    -0.273 OA
HETATM   30  H17 04A     1      10.882 -15.357  35.178  1.00  0.00     0.171 HD
BRANCH  28  31
HETATM   31  C18 04A     1      13.486 -15.668  35.122  1.00 81.57     0.141 C 
BRANCH  31  32
HETATM   32  C19 04A     1      13.641 -16.130  36.478  1.00 87.14    -0.050 A 
HETATM   33  C20 04A     1      14.661 -15.618  37.306  1.00 89.62     0.007 A 
HETATM   34  C21 04A     1      14.820 -16.087  38.629  1.00 91.47     0.001 A 
HETATM   35  C22 04A     1      13.978 -17.075  39.173  1.00 91.51     0.000 A 
HETATM   36  C23 04A     1      12.967 -17.597  38.364  1.00 90.74     0.001 A 
HETATM   37  C24 04A     1      12.805 -17.122  37.043  1.00 89.16     0.007 A 
ENDBRANCH  31  32
ENDBRANCH  28  31
ENDBRANCH  25  27
ENDBRANCH  21  22
ENDBRANCH  20  21
ENDBRANCH   1  20
TORSDOF 12
ENDMDL
MODEL 5
REMARK VINA RESULT:      -7.7     25.923     29.103
REMARK  12 active torsions:
REMARK  status: ('A' for Active; 'I' for Inactive)
REMARK    1  A    between atoms: C1_2  and  C2_3 
REMARK       I    between atoms: C1_2  and  N1_10 
REMARK    2  A    between atoms: C2_3  and  C3_4 
REMARK    3  A    between atoms: N1_10  and  C9_11 
REMARK    4  A    between atoms: C10_14  and  C11_15 
REMARK    5  A    between atoms: C11_15  and  C12_16 
REMARK    6  A    between atoms: C12_16  and  S1_17 
REMARK    7  A    between atoms: S1_17  and  C13_18 
REMARK    8  A    between atoms: C13_18  and  C14_19 
REMARK    9  A    between atoms: C14_19  and  C15_20 
REMARK   10  A    between atoms: C16_23  and  N6_24 
REMARK       I    between atoms: N6_24  and  C17_25 
REMARK   11  A    between atoms: C17_25  and  C18_27 
REMARK   12  A    between atoms: C18_27  and  C19_28 
ROOT
HETATM    1  S1  04A     1      -3.969  -9.311  55.768  1.00 49.59    -0.168 SA
ENDROOT
BRANCH   1   2
HETATM    2  C12 04A     1      -5.646  -8.629  55.651  1.00 51.84     0.080 C 
BRANCH   2   3
HETATM    3  C11 04A     1      -6.557  -9.119  56.730  1.00 53.50     0.079 C 
BRANCH   3   4
HETATM    4  C10 04A     1      -7.955  -9.474  56.217  1.00 55.63     0.101 A 
HETATM    5  N3  04A     1      -8.849  -8.673  55.545  1.00 54.52    -0.145 NA
HETATM    6  N2  04A     1     -10.007  -9.271  55.223  1.00 51.72    -0.123 NA
HETATM    7  C9  04A     1     -10.028 -10.554  55.642  1.00 56.18     0.196 A 
HETATM    8  S3  04A     1      -8.530 -10.978  56.456  1.00 54.65    -0.033 SA
BRANCH   7   9
HETATM    9  N1  04A     1     -11.007 -11.405  55.373  1.00 57.11    -0.304 N 
HETATM   10  C1  04A     1     -11.723 -12.003  56.344  1.00 61.18     0.227 C 
HETATM   11  O1  04A     1     -11.743 -11.685  57.542  1.00 62.65    -0.273 OA
HETATM   12  H8  04A     1     -11.228 -11.617  54.389  1.00  0.00     0.171 HD
BRANCH  10  13
HETATM   13  C2  04A     1     -12.635 -13.097  55.785  1.00 64.06     0.141 C 
BRANCH  13  14
HETATM   14  C3  04A     1     -11.954 -14.134  55.220  1.00 65.82    -0.050 A 
HETATM   15  C4  04A     1     -12.314 -14.577  53.958  1.00 68.40     0.007 A 
HETATM   16  C5  04A     1     -11.608 -15.640  53.396  1.00 71.17     0.001 A 
HETATM   17  C6  04A     1     -10.546 -16.229  54.093  1.00 71.06     0.000 A 
HETATM   18  C7  04A     1     -10.178 -15.759  55.357  1.00 70.44     0.001 A 
HETATM   19  C8  04A     1     -10.891 -14.703  55.924  1.00 69.17     0.007 A 
ENDBRANCH  13  14
ENDBRANCH  10  13
ENDBRANCH   7   9
ENDBRANCH   3   4
ENDBRANCH   2   3
ENDBRANCH   1   2
BRANCH   1  20
HETATM   20  C13 04A     1      -3.154  -7.698  55.585  1.00 52.04     0.080 C 
BRANCH  20  21
HETATM   21  C14 04A     1      -4.092  -6.633  55.036  1.00 55.91     0.079 C 
BRANCH  21  22
HETATM   22  C15 04A     1      -3.890  -5.336  55.843  1.00 59.63     0.101 A 
HETATM   23  N4  04A     1      -2.903  -4.433  55.615  1.00 59.45    -0.145 NA
HETATM   24  N5  04A     1      -2.901  -3.332  56.469  1.00 61.70    -0.123 NA
HETATM   25  C16 04A     1      -3.877  -3.344  57.397  1.00 65.04     0.196 A 
HETATM   26  S2  04A     1      -4.852  -4.871  57.139  1.00 59.63    -0.033 SA
BRANCH  25  27
HETATM   27  N6  04A     1      -4.048  -2.341  58.292  1.00 69.91    -0.304 N 
HETATM   28  C17 04A     1      -2.979  -1.688  58.795  1.00 76.98     0.227 C 
HETATM   29  O2  04A     1      -1.827  -1.901  58.414  1.00 78.52    -0.273 OA
HETATM   30  H17 04A     1      -4.998  -2.077  58.591  1.00  0.00     0.171 HD
BRANCH  28  31
HETATM   31  C18 04A     1      -3.252  -0.633  59.915  1.00 81.57     0.141 C 
BRANCH  31  32
HETATM   32  C19 04A     1      -3.127   0.709  59.407  1.00 87.14    -0.050 A 
HETATM   33  C20 04A     1      -2.975   1.804  60.284  1.00 89.62     0.007 A 
HETATM   34  C21 04A     1      -2.870   3.120  59.782  1.00 91.47     0.001 A 
HETATM   35  C22 04A     1      -2.912   3.394  58.402  1.00 91.51     0.000 A 
HETATM   36  C23 04A     1      -3.068   2.323  57.522  1.00 90.74     0.001 A 
HETATM   37  C24 04A     1      -3.167   1.006  58.024  1.00 89.16     0.007 A 
ENDBRANCH  31  32
ENDBRANCH  28  31
ENDBRANCH  25  27
ENDBRANCH  21  22
ENDBRANCH  20  21
ENDBRANCH   1  20
TORSDOF 12
ENDMDL
MODEL 6
REMARK VINA RESULT:      -7.7      8.177     11.700
REMARK  12 active torsions:
REMARK  status: ('A' for Active; 'I' for Inactive)
REMARK    1  A    between atoms: C1_2  and  C2_3 
REMARK       I    between atoms: C1_2  and  N1_10 
REMARK    2  A    between atoms: C2_3  and  C3_4 
REMARK    3  A    between atoms: N1_10  and  C9_11 
REMARK    4  A    between atoms: C10_14  and  C11_15 
REMARK    5  A    between atoms: C11_15  and  C12_16 
REMARK    6  A    between atoms: C12_16  and  S1_17 
REMARK    7  A    between atoms: S1_17  and  C13_18 
REMARK    8  A    between atoms: C13_18  and  C14_19 
REMARK    9  A    between atoms: C14_19  and  C15_20 
REMARK   10  A    between atoms: C16_23  and  N6_24 
REMARK       I    between atoms: N6_24  and  C17_25 
REMARK   11  A    between atoms: C17_25  and  C18_27 
REMARK   12  A    between atoms: C18_27  and  C19_28 
ROOT
HETATM    1  S1  04A     1      10.927  -7.552  36.230  1.00 49.59    -0.168 SA
ENDROOT
BRANCH   1   2
HETATM    2  C12 04A     1      12.445  -8.491  35.904  1.00 51.84     0.080 C 
BRANCH   2   3
HETATM    3  C11 04A     1      12.507  -9.044  34.517  1.00 53.50     0.079 C 
BRANCH   3   4
HETATM    4  C10 04A     1      13.247 -10.382  34.440  1.00 55.63     0.101 A 
HETATM    5  N3  04A     1      12.814 -11.570  33.897  1.00 54.52    -0.145 NA
HETATM    6  N2  04A     1      13.695 -12.580  33.981  1.00 51.72    -0.123 NA
HETATM    7  C9  04A     1      14.832 -12.188  34.593  1.00 56.18     0.196 A 
HETATM    8  S3  04A     1      14.749 -10.496  35.057  1.00 54.65    -0.033 SA
BRANCH   7   9
HETATM    9  N1  04A     1      15.906 -12.954  34.723  1.00 57.11    -0.304 N 
HETATM   10  C1  04A     1      16.224 -13.548  35.888  1.00 61.18     0.227 C 
HETATM   11  O1  04A     1      15.487 -13.667  36.877  1.00 62.65    -0.273 OA
HETATM   12  H8  04A     1      16.517 -13.099  33.906  1.00  0.00     0.171 HD
BRANCH  10  13
HETATM   13  C2  04A     1      17.613 -14.190  35.837  1.00 64.06     0.141 C 
BRANCH  13  14
HETATM   14  C3  04A     1      18.629 -13.281  35.831  1.00 65.82    -0.050 A 
HETATM   15  C4  04A     1      19.616 -13.372  34.863  1.00 68.40     0.007 A 
HETATM   16  C5  04A     1      20.649 -12.435  34.873  1.00 71.17     0.001 A 
HETATM   17  C6  04A     1      20.669 -11.416  35.833  1.00 71.06     0.000 A 
HETATM   18  C7  04A     1      19.656 -11.323  36.792  1.00 70.44     0.001 A 
HETATM   19  C8  04A     1      18.628 -12.265  36.789  1.00 69.17     0.007 A 
ENDBRANCH  13  14
ENDBRANCH  10  13
ENDBRANCH   7   9
ENDBRANCH   3   4
ENDBRANCH   2   3
ENDBRANCH   1   2
BRANCH   1  20
HETATM   20  C13 04A     1      10.731  -8.196  37.918  1.00 52.04     0.080 C 
BRANCH  20  21
HETATM   21  C14 04A     1       9.886  -9.461  37.962  1.00 55.91     0.079 C 
BRANCH  21  22
HETATM   22  C15 04A     1      10.813 -10.677  37.779  1.00 59.63     0.101 A 
HETATM   23  N4  04A     1      11.979 -10.865  38.447  1.00 59.45    -0.145 NA
HETATM   24  N5  04A     1      12.664 -12.034  38.122  1.00 61.70    -0.123 NA
HETATM   25  C16 04A     1      12.063 -12.791  37.184  1.00 65.04     0.196 A 
HETATM   26  S2  04A     1      10.519 -11.934  36.703  1.00 59.63    -0.033 SA
BRANCH  25  27
HETATM   27  N6  04A     1      12.568 -13.977  36.765  1.00 69.91    -0.304 N 
HETATM   28  C17 04A     1      12.065 -15.136  37.240  1.00 76.98     0.227 C 
HETATM   29  O2  04A     1      11.089 -15.182  37.991  1.00 78.52    -0.273 OA
HETATM   30  H17 04A     1      13.339 -13.994  36.082  1.00  0.00     0.171 HD
BRANCH  28  31
HETATM   31  C18 04A     1      12.784 -16.454  36.806  1.00 81.57     0.141 C 
BRANCH  31  32
HETATM   32  C19 04A     1      12.865 -17.387  37.900  1.00 87.14    -0.050 A 
HETATM   33  C20 04A     1      12.013 -18.510  37.958  1.00 89.62     0.007 A 
HETATM   34  C21 04A     1      12.084 -19.413  39.043  1.00 91.47     0.001 A 
HETATM   35  C22 04A     1      12.995 -19.234  40.100  1.00 91.51     0.000 A 
HETATM   36  C23 04A     1      13.841 -18.124  40.060  1.00 90.74     0.001 A 
HETATM   37  C24 04A     1      13.774 -17.225  38.972  1.00 89.16     0.007 A 
ENDBRANCH  31  32
ENDBRANCH  28  31
ENDBRANCH  25  27
ENDBRANCH  21  22
ENDBRANCH  20  21
ENDBRANCH   1  20
TORSDOF 12
ENDMDL
MODEL 7
REMARK VINA RESULT:      -7.6      2.497     14.902
REMARK  12 active torsions:
REMARK  status: ('A' for Active; 'I' for Inactive)
REMARK    1  A    between atoms: C1_2  and  C2_3 
REMARK       I    between atoms: C1_2  and  N1_10 
REMARK    2  A    between atoms: C2_3  and  C3_4 
REMARK    3  A    between atoms: N1_10  and  C9_11 
REMARK    4  A    between atoms: C10_14  and  C11_15 
REMARK    5  A    between atoms: C11_15  and  C12_16 
REMARK    6  A    between atoms: C12_16  and  S1_17 
REMARK    7  A    between atoms: S1_17  and  C13_18 
REMARK    8  A    between atoms: C13_18  and  C14_19 
REMARK    9  A    between atoms: C14_19  and  C15_20 
REMARK   10  A    between atoms: C16_23  and  N6_24 
REMARK       I    between atoms: N6_24  and  C17_25 
REMARK   11  A    between atoms: C17_25  and  C18_27 
REMARK   12  A    between atoms: C18_27  and  C19_28 
ROOT
HETATM    1  S1  04A     1      10.643 -10.018  37.466  1.00 49.59    -0.168 SA
ENDROOT
BRANCH   1   2
HETATM    2  C12 04A     1      10.607  -9.861  35.659  1.00 51.84     0.080 C 
BRANCH   2   3
HETATM    3  C11 04A     1      10.653 -11.177  34.953  1.00 53.50     0.079 C 
BRANCH   3   4
HETATM    4  C10 04A     1      10.143 -12.335  35.815  1.00 55.63     0.101 A 
HETATM    5  N3  04A     1       8.858 -12.589  36.234  1.00 54.52    -0.145 NA
HETATM    6  N2  04A     1       8.720 -13.692  36.987  1.00 51.72    -0.123 NA
HETATM    7  C9  04A     1       9.904 -14.315  37.164  1.00 56.18     0.196 A 
HETATM    8  S3  04A     1      11.198 -13.458  36.340  1.00 54.65    -0.033 SA
BRANCH   7   9
HETATM    9  N1  04A     1      10.045 -15.479  37.782  1.00 57.11    -0.304 N 
HETATM   10  C1  04A     1      10.504 -15.566  39.045  1.00 61.18     0.227 C 
HETATM   11  O1  04A     1      10.622 -14.632  39.849  1.00 62.65    -0.273 OA
HETATM   12  H8  04A     1       9.794 -16.344  37.282  1.00  0.00     0.171 HD
BRANCH  10  13
HETATM   13  C2  04A     1      10.781 -17.017  39.448  1.00 64.06     0.141 C 
BRANCH  13  14
HETATM   14  C3  04A     1      12.083 -17.248  39.780  1.00 65.82    -0.050 A 
HETATM   15  C4  04A     1      12.376 -18.139  40.800  1.00 68.40     0.007 A 
HETATM   16  C5  04A     1      13.713 -18.362  41.127  1.00 71.17     0.001 A 
HETATM   17  C6  04A     1      14.731 -17.710  40.422  1.00 71.06     0.000 A 
HETATM   18  C7  04A     1      14.423 -16.829  39.381  1.00 70.44     0.001 A 
HETATM   19  C8  04A     1      13.086 -16.597  39.059  1.00 69.17     0.007 A 
ENDBRANCH  13  14
ENDBRANCH  10  13
ENDBRANCH   7   9
ENDBRANCH   3   4
ENDBRANCH   2   3
ENDBRANCH   1   2
BRANCH   1  20
HETATM   20  C13 04A     1       9.331  -8.791  37.734  1.00 52.04     0.080 C 
BRANCH  20  21
HETATM   21  C14 04A     1       7.967  -9.289  37.276  1.00 55.91     0.079 C 
BRANCH  21  22
HETATM   22  C15 04A     1       7.290  -8.178  36.452  1.00 59.63     0.101 A 
HETATM   23  N4  04A     1       7.848  -6.970  36.182  1.00 59.45    -0.145 NA
HETATM   24  N5  04A     1       7.056  -6.111  35.422  1.00 61.70    -0.123 NA
HETATM   25  C16 04A     1       5.853  -6.613  35.084  1.00 65.04     0.196 A 
HETATM   26  S2  04A     1       5.750  -8.298  35.791  1.00 59.63    -0.033 SA
BRANCH  25  27
HETATM   27  N6  04A     1       4.963  -5.932  34.322  1.00 69.91    -0.304 N 
HETATM   28  C17 04A     1       5.184  -5.768  33.000  1.00 76.98     0.227 C 
HETATM   29  O2  04A     1       6.134  -6.288  32.413  1.00 78.52    -0.273 OA
HETATM   30  H17 04A     1       4.114  -5.538  34.753  1.00  0.00     0.171 HD
BRANCH  28  31
HETATM   31  C18 04A     1       4.177  -4.865  32.218  1.00 81.57     0.141 C 
BRANCH  31  32
HETATM   32  C19 04A     1       4.775  -3.602  31.868  1.00 87.14    -0.050 A 
HETATM   33  C20 04A     1       4.616  -2.471  32.696  1.00 89.62     0.007 A 
HETATM   34  C21 04A     1       5.189  -1.230  32.340  1.00 91.47     0.001 A 
HETATM   35  C22 04A     1       5.934  -1.068  31.157  1.00 91.51     0.000 A 
HETATM   36  C23 04A     1       6.096  -2.176  30.323  1.00 90.74     0.001 A 
HETATM   37  C24 04A     1       5.527  -3.418  30.684  1.00 89.16     0.007 A 
ENDBRANCH  31  32
ENDBRANCH  28  31
ENDBRANCH  25  27
ENDBRANCH  21  22
ENDBRANCH  20  21
ENDBRANCH   1  20
TORSDOF 12
ENDMDL
MODEL 8
REMARK VINA RESULT:      -7.5      1.916     15.565
REMARK  12 active torsions:
REMARK  status: ('A' for Active; 'I' for Inactive)
REMARK    1  A    between atoms: C1_2  and  C2_3 
REMARK       I    between atoms: C1_2  and  N1_10 
REMARK    2  A    between atoms: C2_3  and  C3_4 
REMARK    3  A    between atoms: N1_10  and  C9_11 
REMARK    4  A    between atoms: C10_14  and  C11_15 
REMARK    5  A    between atoms: C11_15  and  C12_16 
REMARK    6  A    between atoms: C12_16  and  S1_17 
REMARK    7  A    between atoms: S1_17  and  C13_18 
REMARK    8  A    between atoms: C13_18  and  C14_19 
REMARK    9  A    between atoms: C14_19  and  C15_20 
REMARK   10  A    between atoms: C16_23  and  N6_24 
REMARK       I    between atoms: N6_24  and  C17_25 
REMARK   11  A    between atoms: C17_25  and  C18_27 
REMARK   12  A    between atoms: C18_27  and  C19_28 
ROOT
HETATM    1  S1  04A     1       7.136  -8.492  34.306  1.00 49.59    -0.168 SA
ENDROOT
BRANCH   1   2
HETATM    2  C12 04A     1       6.968  -9.226  35.956  1.00 51.84     0.080 C 
BRANCH   2   3
HETATM    3  C11 04A     1       6.600 -10.674  35.921  1.00 53.50     0.079 C 
BRANCH   3   4
HETATM    4  C10 04A     1       7.784 -11.599  36.214  1.00 55.63     0.101 A 
HETATM    5  N3  04A     1       7.816 -12.974  36.217  1.00 54.52    -0.145 NA
HETATM    6  N2  04A     1       9.011 -13.508  36.516  1.00 51.72    -0.123 NA
HETATM    7  C9  04A     1       9.931 -12.549  36.750  1.00 56.18     0.196 A 
HETATM    8  S3  04A     1       9.231 -10.947  36.575  1.00 54.65    -0.033 SA
BRANCH   7   9
HETATM    9  N1  04A     1      11.215 -12.791  36.970  1.00 57.11    -0.304 N 
HETATM   10  C1  04A     1      12.034 -13.242  36.001  1.00 61.18     0.227 C 
HETATM   11  O1  04A     1      11.793 -13.260  34.786  1.00 62.65    -0.273 OA
HETATM   12  H8  04A     1      11.599 -12.630  37.912  1.00  0.00     0.171 HD
BRANCH  10  13
HETATM   13  C2  04A     1      13.400 -13.650  36.558  1.00 64.06     0.141 C 
BRANCH  13  14
HETATM   14  C3  04A     1      13.405 -14.888  37.128  1.00 65.82    -0.050 A 
HETATM   15  C4  04A     1      14.066 -15.081  38.330  1.00 68.40     0.007 A 
HETATM   16  C5  04A     1      14.062 -16.354  38.898  1.00 71.17     0.001 A 
HETATM   17  C6  04A     1      13.384 -17.405  38.270  1.00 71.06     0.000 A 
HETATM   18  C7  04A     1      12.702 -17.194  37.068  1.00 70.44     0.001 A 
HETATM   19  C8  04A     1      12.714 -15.923  36.493  1.00 69.17     0.007 A 
ENDBRANCH  13  14
ENDBRANCH  10  13
ENDBRANCH   7   9
ENDBRANCH   3   4
ENDBRANCH   2   3
ENDBRANCH   1   2
BRANCH   1  20
HETATM   20  C13 04A     1       6.710  -6.815  34.860  1.00 52.04     0.080 C 
BRANCH  20  21
HETATM   21  C14 04A     1       5.246  -6.478  34.616  1.00 55.91     0.079 C 
BRANCH  21  22
HETATM   22  C15 04A     1       5.154  -5.538  33.400  1.00 59.63     0.101 A 
HETATM   23  N4  04A     1       3.994  -5.154  32.809  1.00 59.45    -0.145 NA
HETATM   24  N5  04A     1       4.142  -4.302  31.716  1.00 61.70    -0.123 NA
HETATM   25  C16 04A     1       5.419  -4.002  31.411  1.00 65.04     0.196 A 
HETATM   26  S2  04A     1       6.484  -4.874  32.617  1.00 59.63    -0.033 SA
BRANCH  25  27
HETATM   27  N6  04A     1       5.753  -3.164  30.399  1.00 69.91    -0.304 N 
HETATM   28  C17 04A     1       5.968  -1.854  30.643  1.00 76.98     0.227 C 
HETATM   29  O2  04A     1       5.958  -1.377  31.780  1.00 78.52    -0.273 OA
HETATM   30  H17 04A     1       5.843  -3.529  29.440  1.00  0.00     0.171 HD
BRANCH  28  31
HETATM   31  C18 04A     1       6.224  -0.933  29.408  1.00 81.57     0.141 C 
BRANCH  31  32
HETATM   32  C19 04A     1       5.122  -0.030  29.195  1.00 87.14    -0.050 A 
HETATM   33  C20 04A     1       4.684   0.283  27.891  1.00 89.62     0.007 A 
HETATM   34  C21 04A     1       3.614   1.184  27.687  1.00 91.47     0.001 A 
HETATM   35  C22 04A     1       2.948   1.801  28.761  1.00 91.51     0.000 A 
HETATM   36  C23 04A     1       3.374   1.507  30.058  1.00 90.74     0.001 A 
HETATM   37  C24 04A     1       4.439   0.602  30.261  1.00 89.16     0.007 A 
ENDBRANCH  31  32
ENDBRANCH  28  31
ENDBRANCH  25  27
ENDBRANCH  21  22
ENDBRANCH  20  21
ENDBRANCH   1  20
TORSDOF 12
ENDMDL
MODEL 9
REMARK VINA RESULT:      -7.5     24.729     27.863
REMARK  12 active torsions:
REMARK  status: ('A' for Active; 'I' for Inactive)
REMARK    1  A    between atoms: C1_2  and  C2_3 
REMARK       I    between atoms: C1_2  and  N1_10 
REMARK    2  A    between atoms: C2_3  and  C3_4 
REMARK    3  A    between atoms: N1_10  and  C9_11 
REMARK    4  A    between atoms: C10_14  and  C11_15 
REMARK    5  A    between atoms: C11_15  and  C12_16 
REMARK    6  A    between atoms: C12_16  and  S1_17 
REMARK    7  A    between atoms: S1_17  and  C13_18 
REMARK    8  A    between atoms: C13_18  and  C14_19 
REMARK    9  A    between atoms: C14_19  and  C15_20 
REMARK   10  A    between atoms: C16_23  and  N6_24 
REMARK       I    between atoms: N6_24  and  C17_25 
REMARK   11  A    between atoms: C17_25  and  C18_27 
REMARK   12  A    between atoms: C18_27  and  C19_28 
ROOT
HETATM    1  S1  04A     1      -7.689 -12.133  55.869  1.00 49.59    -0.168 SA
ENDROOT
BRANCH   1   2
HETATM    2  C12 04A     1      -8.411 -13.383  54.770  1.00 51.84     0.080 C 
BRANCH   2   3
HETATM    3  C11 04A     1      -7.384 -14.213  54.069  1.00 53.50     0.079 C 
BRANCH   3   4
HETATM    4  C10 04A     1      -7.918 -15.579  53.629  1.00 55.63     0.101 A 
HETATM    5  N3  04A     1      -7.679 -16.812  54.190  1.00 54.52    -0.145 NA
HETATM    6  N2  04A     1      -8.292 -17.836  53.576  1.00 51.72    -0.123 NA
HETATM    7  C9  04A     1      -9.021 -17.411  52.522  1.00 56.18     0.196 A 
HETATM    8  S3  04A     1      -8.906 -15.667  52.338  1.00 54.65    -0.033 SA
BRANCH   7   9
HETATM    9  N1  04A     1      -9.805 -18.196  51.798  1.00 57.11    -0.304 N 
HETATM   10  C1  04A     1     -11.148 -18.116  51.858  1.00 61.18     0.227 C 
HETATM   11  O1  04A     1     -11.806 -17.201  52.370  1.00 62.65    -0.273 OA
HETATM   12  H8  04A     1      -9.374 -18.889  51.170  1.00  0.00     0.171 HD
BRANCH  10  13
HETATM   13  C2  04A     1     -11.817 -19.267  51.102  1.00 64.06     0.141 C 
BRANCH  13  14
HETATM   14  C3  04A     1     -11.886 -19.064  49.756  1.00 65.82    -0.050 A 
HETATM   15  C4  04A     1     -10.977 -19.700  48.926  1.00 68.40     0.007 A 
HETATM   16  C5  04A     1     -11.060 -19.480  47.552  1.00 71.17     0.001 A 
HETATM   17  C6  04A     1     -12.056 -18.647  47.029  1.00 71.06     0.000 A 
HETATM   18  C7  04A     1     -12.981 -18.028  47.875  1.00 70.44     0.001 A 
HETATM   19  C8  04A     1     -12.893 -18.239  49.251  1.00 69.17     0.007 A 
ENDBRANCH  13  14
ENDBRANCH  10  13
ENDBRANCH   7   9
ENDBRANCH   3   4
ENDBRANCH   2   3
ENDBRANCH   1   2
BRANCH   1  20
HETATM   20  C13 04A     1      -7.616 -10.851  54.585  1.00 52.04     0.080 C 
BRANCH  20  21
HETATM   21  C14 04A     1      -8.476  -9.641  54.924  1.00 55.91     0.079 C 
BRANCH  21  22
HETATM   22  C15 04A     1      -7.563  -8.405  55.034  1.00 59.63     0.101 A 
HETATM   23  N4  04A     1      -7.917  -7.236  55.626  1.00 59.45    -0.145 NA
HETATM   24  N5  04A     1      -6.937  -6.245  55.607  1.00 61.70    -0.123 NA
HETATM   25  C16 04A     1      -5.793  -6.602  54.993  1.00 65.04     0.196 A 
HETATM   26  S2  04A     1      -6.005  -8.325  54.411  1.00 59.63    -0.033 SA
BRANCH  25  27
HETATM   27  N6  04A     1      -4.721  -5.778  54.906  1.00 69.91    -0.304 N 
HETATM   28  C17 04A     1      -3.944  -5.556  55.987  1.00 76.98     0.227 C 
HETATM   29  O2  04A     1      -4.109  -6.140  57.059  1.00 78.52    -0.273 OA
HETATM   30  H17 04A     1      -4.497  -5.319  54.011  1.00  0.00     0.171 HD
BRANCH  28  31
HETATM   31  C18 04A     1      -2.804  -4.498  55.839  1.00 81.57     0.141 C 
BRANCH  31  32
HETATM   32  C19 04A     1      -2.748  -3.629  56.986  1.00 87.14    -0.050 A 
HETATM   33  C20 04A     1      -1.644  -3.659  57.864  1.00 89.62     0.007 A 
HETATM   34  C21 04A     1      -1.602  -2.818  58.998  1.00 91.47     0.001 A 
HETATM   35  C22 04A     1      -2.646  -1.924  59.299  1.00 91.51     0.000 A 
HETATM   36  C23 04A     1      -3.749  -1.886  58.444  1.00 90.74     0.001 A 
HETATM   37  C24 04A     1      -3.787  -2.724  57.306  1.00 89.16     0.007 A 
ENDBRANCH  31  32
ENDBRANCH  28  31
ENDBRANCH  25  27
ENDBRANCH  21  22
ENDBRANCH  20  21
ENDBRANCH   1  20
TORSDOF 12
ENDMDL
