MODEL 1
REMARK VINA RESULT:      -8.8      0.000      0.000
REMARK  12 active torsions:
REMARK  status: ('A' for Active; 'I' for Inactive)
REMARK    1  A    between atoms: C1_2  and  C2_3 
REMARK       I    between atoms: C1_2  and  N1_10 
REMARK    2  A    between atoms: C2_3  and  C3_4 
REMARK    3  A    between atoms: N1_10  and  C9_11 
REMARK    4  A    between atoms: C10_14  and  C11_15 
REMARK    5  A    between atoms: C11_15  and  C12_16 
REMARK    6  A    between atoms: C12_16  and  S1_17 
REMARK    7  A    between atoms: S1_17  and  C13_18 
REMARK    8  A    between atoms: C13_18  and  C14_19 
REMARK    9  A    between atoms: C14_19  and  C15_20 
REMARK   10  A    between atoms: C16_23  and  N6_24 
REMARK       I    between atoms: N6_24  and  C17_25 
REMARK   11  A    between atoms: C17_25  and  C18_27 
REMARK   12  A    between atoms: C18_27  and  C19_28 
ROOT
HETATM    1  S1  04A     1      -6.336  -7.439  55.058  1.00 49.59    -0.168 SA
ENDROOT
BRANCH   1   2
HETATM    2  C12 04A     1      -5.550  -5.823  55.314  1.00 51.84     0.080 C 
BRANCH   2   3
HETATM    3  C11 04A     1      -4.075  -5.915  55.534  1.00 53.50     0.079 C 
BRANCH   3   4
HETATM    4  C10 04A     1      -3.505  -4.705  56.278  1.00 55.63     0.101 A 
HETATM    5  N3  04A     1      -2.367  -3.985  55.996  1.00 54.52    -0.145 NA
HETATM    6  N2  04A     1      -2.123  -2.968  56.837  1.00 51.72    -0.123 NA
HETATM    7  C9  04A     1      -3.075  -2.882  57.791  1.00 56.18     0.196 A 
HETATM    8  S3  04A     1      -4.291  -4.132  57.583  1.00 54.65    -0.033 SA
BRANCH   7   9
HETATM    9  N1  04A     1      -3.136  -1.912  58.691  1.00 57.11    -0.304 N 
HETATM   10  C1  04A     1      -3.776  -0.752  58.450  1.00 61.18     0.227 C 
HETATM   11  O1  04A     1      -4.559  -0.526  57.517  1.00 62.65    -0.273 OA
HETATM   12  H8  04A     1      -2.680  -2.049  59.605  1.00  0.00     0.171 HD
BRANCH  10  13
HETATM   13  C2  04A     1      -3.516   0.279  59.552  1.00 64.06     0.141 C 
BRANCH  13  14
HETATM   14  C3  04A     1      -3.418   1.556  59.087  1.00 65.82    -0.050 A 
HETATM   15  C4  04A     1      -2.358   1.901  58.264  1.00 68.40     0.007 A 
HETATM   16  C5  04A     1      -2.273   3.212  57.798  1.00 71.17     0.001 A 
HETATM   17  C6  04A     1      -3.254   4.149  58.144  1.00 71.06     0.000 A 
HETATM   18  C7  04A     1      -4.330   3.785  58.958  1.00 70.44     0.001 A 
HETATM   19  C8  04A     1      -4.411   2.475  59.433  1.00 69.17     0.007 A 
ENDBRANCH  13  14
ENDBRANCH  10  13
ENDBRANCH   7   9
ENDBRANCH   3   4
ENDBRANCH   2   3
ENDBRANCH   1   2
BRANCH   1  20
HETATM   20  C13 04A     1      -4.973  -8.372  55.812  1.00 52.04     0.080 C 
BRANCH  20  21
HETATM   21  C14 04A     1      -5.408  -9.132  57.057  1.00 55.91     0.079 C 
BRANCH  21  22
HETATM   22  C15 04A     1      -6.238 -10.355  56.621  1.00 59.63     0.101 A 
HETATM   23  N4  04A     1      -5.919 -11.172  55.586  1.00 59.45    -0.145 NA
HETATM   24  N5  04A     1      -6.814 -12.217  55.362  1.00 61.70    -0.123 NA
HETATM   25  C16 04A     1      -7.864 -12.244  56.205  1.00 65.04     0.196 A 
HETATM   26  S2  04A     1      -7.672 -10.832  57.355  1.00 59.63    -0.033 SA
BRANCH  25  27
HETATM   27  N6  04A     1      -8.819 -13.204  56.157  1.00 69.91    -0.304 N 
HETATM   28  C17 04A     1     -10.108 -12.896  56.413  1.00 76.98     0.227 C 
HETATM   29  O2  04A     1     -10.490 -11.741  56.613  1.00 78.52    -0.273 OA
HETATM   30  H17 04A     1      -8.560 -14.174  55.924  1.00  0.00     0.171 HD
BRANCH  28  31
HETATM   31  C18 04A     1     -11.126 -14.079  56.462  1.00 81.57     0.141 C 
BRANCH  31  32
HETATM   32  C19 04A     1     -11.022 -14.904  55.286  1.00 87.14    -0.050 A 
HETATM   33  C20 04A     1     -10.088 -15.959  55.222  1.00 89.62     0.007 A 
HETATM   34  C21 04A     1      -9.977 -16.754  54.059  1.00 91.47     0.001 A 
HETATM   35  C22 04A     1     -10.783 -16.531  52.927  1.00 91.51     0.000 A 
HETATM   36  C23 04A     1     -11.708 -15.487  52.972  1.00 90.74     0.001 A 
HETATM   37  C24 04A     1     -11.823 -14.696  54.138  1.00 89.16     0.007 A 
ENDBRANCH  31  32
ENDBRANCH  28  31
ENDBRANCH  25  27
ENDBRANCH  21  22
ENDBRANCH  20  21
ENDBRANCH   1  20
TORSDOF 12
ENDMDL
MODEL 2
REMARK VINA RESULT:      -8.1      1.826      2.716
REMARK  12 active torsions:
REMARK  status: ('A' for Active; 'I' for Inactive)
REMARK    1  A    between atoms: C1_2  and  C2_3 
REMARK       I    between atoms: C1_2  and  N1_10 
REMARK    2  A    between atoms: C2_3  and  C3_4 
REMARK    3  A    between atoms: N1_10  and  C9_11 
REMARK    4  A    between atoms: C10_14  and  C11_15 
REMARK    5  A    between atoms: C11_15  and  C12_16 
REMARK    6  A    between atoms: C12_16  and  S1_17 
REMARK    7  A    between atoms: S1_17  and  C13_18 
REMARK    8  A    between atoms: C13_18  and  C14_19 
REMARK    9  A    between atoms: C14_19  and  C15_20 
REMARK   10  A    between atoms: C16_23  and  N6_24 
REMARK       I    between atoms: N6_24  and  C17_25 
REMARK   11  A    between atoms: C17_25  and  C18_27 
REMARK   12  A    between atoms: C18_27  and  C19_28 
ROOT
HETATM    1  S1  04A     1      -5.282  -5.009  56.147  1.00 49.59    -0.168 SA
ENDROOT
BRANCH   1   2
HETATM    2  C12 04A     1      -4.062  -4.672  57.448  1.00 51.84     0.080 C 
BRANCH   2   3
HETATM    3  C11 04A     1      -3.121  -3.565  57.099  1.00 53.50     0.079 C 
BRANCH   3   4
HETATM    4  C10 04A     1      -3.113  -2.439  58.135  1.00 55.63     0.101 A 
HETATM    5  N3  04A     1      -2.975  -2.533  59.501  1.00 54.52    -0.145 NA
HETATM    6  N2  04A     1      -3.009  -1.359  60.151  1.00 51.72    -0.123 NA
HETATM    7  C9  04A     1      -3.173  -0.329  59.294  1.00 56.18     0.196 A 
HETATM    8  S3  04A     1      -3.280  -0.898  57.636  1.00 54.65    -0.033 SA
BRANCH   7   9
HETATM    9  N1  04A     1      -3.142   0.946  59.654  1.00 57.11    -0.304 N 
HETATM   10  C1  04A     1      -4.219   1.747  59.539  1.00 61.18     0.227 C 
HETATM   11  O1  04A     1      -5.385   1.384  59.331  1.00 62.65    -0.273 OA
HETATM   12  H8  04A     1      -2.268   1.337  60.032  1.00  0.00     0.171 HD
BRANCH  10  13
HETATM   13  C2  04A     1      -3.867   3.212  59.809  1.00 64.06     0.141 C 
BRANCH  13  14
HETATM   14  C3  04A     1      -3.895   3.991  58.691  1.00 65.82    -0.050 A 
HETATM   15  C4  04A     1      -4.941   4.881  58.509  1.00 68.40     0.007 A 
HETATM   16  C5  04A     1      -4.955   5.669  57.359  1.00 71.17     0.001 A 
HETATM   17  C6  04A     1      -3.919   5.571  56.423  1.00 71.06     0.000 A 
HETATM   18  C7  04A     1      -2.857   4.684  56.628  1.00 70.44     0.001 A 
HETATM   19  C8  04A     1      -2.848   3.888  57.773  1.00 69.17     0.007 A 
ENDBRANCH  13  14
ENDBRANCH  10  13
ENDBRANCH   7   9
ENDBRANCH   3   4
ENDBRANCH   2   3
ENDBRANCH   1   2
BRANCH   1  20
HETATM   20  C13 04A     1      -5.838  -6.573  56.885  1.00 52.04     0.080 C 
BRANCH  20  21
HETATM   21  C14 04A     1      -4.928  -7.739  56.528  1.00 55.91     0.079 C 
BRANCH  21  22
HETATM   22  C15 04A     1      -5.799  -8.910  56.036  1.00 59.63     0.101 A 
HETATM   23  N4  04A     1      -5.463  -9.748  55.023  1.00 59.45    -0.145 NA
HETATM   24  N5  04A     1      -6.403 -10.737  54.739  1.00 61.70    -0.123 NA
HETATM   25  C16 04A     1      -7.506 -10.698  55.511  1.00 65.04     0.196 A 
HETATM   26  S2  04A     1      -7.305  -9.298  56.673  1.00 59.63    -0.033 SA
BRANCH  25  27
HETATM   27  N6  04A     1      -8.512 -11.599  55.398  1.00 69.91    -0.304 N 
HETATM   28  C17 04A     1      -8.458 -12.767  56.074  1.00 76.98     0.227 C 
HETATM   29  O2  04A     1      -7.560 -13.034  56.875  1.00 78.52    -0.273 OA
HETATM   30  H17 04A     1      -9.321 -11.392  54.795  1.00  0.00     0.171 HD
BRANCH  28  31
HETATM   31  C18 04A     1      -9.592 -13.804  55.793  1.00 81.57     0.141 C 
BRANCH  31  32
HETATM   32  C19 04A     1      -9.084 -14.953  55.090  1.00 87.14    -0.050 A 
HETATM   33  C20 04A     1      -7.864 -14.889  54.382  1.00 89.62     0.007 A 
HETATM   34  C21 04A     1      -7.379 -16.014  53.679  1.00 91.47     0.001 A 
HETATM   35  C22 04A     1      -8.081 -17.233  53.653  1.00 91.51     0.000 A 
HETATM   36  C23 04A     1      -9.292 -17.312  54.342  1.00 90.74     0.001 A 
HETATM   37  C24 04A     1      -9.774 -16.188  55.050  1.00 89.16     0.007 A 
ENDBRANCH  31  32
ENDBRANCH  28  31
ENDBRANCH  25  27
ENDBRANCH  21  22
ENDBRANCH  20  21
ENDBRANCH   1  20
TORSDOF 12
ENDMDL
MODEL 3
REMARK VINA RESULT:      -8.0      8.619     12.996
REMARK  12 active torsions:
REMARK  status: ('A' for Active; 'I' for Inactive)
REMARK    1  A    between atoms: C1_2  and  C2_3 
REMARK       I    between atoms: C1_2  and  N1_10 
REMARK    2  A    between atoms: C2_3  and  C3_4 
REMARK    3  A    between atoms: N1_10  and  C9_11 
REMARK    4  A    between atoms: C10_14  and  C11_15 
REMARK    5  A    between atoms: C11_15  and  C12_16 
REMARK    6  A    between atoms: C12_16  and  S1_17 
REMARK    7  A    between atoms: S1_17  and  C13_18 
REMARK    8  A    between atoms: C13_18  and  C14_19 
REMARK    9  A    between atoms: C14_19  and  C15_20 
REMARK   10  A    between atoms: C16_23  and  N6_24 
REMARK       I    between atoms: N6_24  and  C17_25 
REMARK   11  A    between atoms: C17_25  and  C18_27 
REMARK   12  A    between atoms: C18_27  and  C19_28 
ROOT
HETATM    1  S1  04A     1      -9.353  -5.770  48.524  1.00 49.59    -0.168 SA
ENDROOT
BRANCH   1   2
HETATM    2  C12 04A     1      -7.907  -5.670  47.433  1.00 51.84     0.080 C 
BRANCH   2   3
HETATM    3  C11 04A     1      -8.266  -5.452  45.999  1.00 53.50     0.079 C 
BRANCH   3   4
HETATM    4  C10 04A     1      -7.096  -5.707  45.044  1.00 55.63     0.101 A 
HETATM    5  N3  04A     1      -6.622  -4.898  44.037  1.00 54.52    -0.145 NA
HETATM    6  N2  04A     1      -5.573  -5.397  43.364  1.00 51.72    -0.123 NA
HETATM    7  C9  04A     1      -5.214  -6.607  43.843  1.00 56.18     0.196 A 
HETATM    8  S3  04A     1      -6.249  -7.090  45.177  1.00 54.65    -0.033 SA
BRANCH   7   9
HETATM    9  N1  04A     1      -4.151  -7.282  43.429  1.00 57.11    -0.304 N 
HETATM   10  C1  04A     1      -3.217  -7.738  44.284  1.00 61.18     0.227 C 
HETATM   11  O1  04A     1      -3.322  -7.810  45.516  1.00 62.65    -0.273 OA
HETATM   12  H8  04A     1      -4.036  -7.463  42.422  1.00  0.00     0.171 HD
BRANCH  10  13
HETATM   13  C2  04A     1      -1.992  -8.286  43.547  1.00 64.06     0.141 C 
BRANCH  13  14
HETATM   14  C3  04A     1      -1.005  -8.718  44.382  1.00 65.82    -0.050 A 
HETATM   15  C4  04A     1      -0.124  -7.797  44.926  1.00 68.40     0.007 A 
HETATM   16  C5  04A     1       0.880  -8.256  45.777  1.00 71.17     0.001 A 
HETATM   17  C6  04A     1       0.977  -9.618  46.085  1.00 71.06     0.000 A 
HETATM   18  C7  04A     1       0.069 -10.535  45.546  1.00 70.44     0.001 A 
HETATM   19  C8  04A     1      -0.930 -10.078  44.687  1.00 69.17     0.007 A 
ENDBRANCH  13  14
ENDBRANCH  10  13
ENDBRANCH   7   9
ENDBRANCH   3   4
ENDBRANCH   2   3
ENDBRANCH   1   2
BRANCH   1  20
HETATM   20  C13 04A     1      -8.656  -7.095  49.552  1.00 52.04     0.080 C 
BRANCH  20  21
HETATM   21  C14 04A     1      -9.442  -7.306  50.838  1.00 55.91     0.079 C 
BRANCH  21  22
HETATM   22  C15 04A     1      -8.505  -7.054  52.034  1.00 59.63     0.101 A 
HETATM   23  N4  04A     1      -8.010  -5.839  52.382  1.00 59.45    -0.145 NA
HETATM   24  N5  04A     1      -7.174  -5.840  53.497  1.00 61.70    -0.123 NA
HETATM   25  C16 04A     1      -6.979  -7.053  54.048  1.00 65.04     0.196 A 
HETATM   26  S2  04A     1      -7.942  -8.258  53.062  1.00 59.63    -0.033 SA
BRANCH  25  27
HETATM   27  N6  04A     1      -6.221  -7.242  55.156  1.00 69.91    -0.304 N 
HETATM   28  C17 04A     1      -6.438  -6.501  56.263  1.00 76.98     0.227 C 
HETATM   29  O2  04A     1      -7.367  -5.697  56.357  1.00 78.52    -0.273 OA
HETATM   30  H17 04A     1      -5.476  -7.953  55.152  1.00  0.00     0.171 HD
BRANCH  28  31
HETATM   31  C18 04A     1      -5.442  -6.690  57.452  1.00 81.57     0.141 C 
BRANCH  31  32
HETATM   32  C19 04A     1      -4.598  -5.534  57.612  1.00 87.14    -0.050 A 
HETATM   33  C20 04A     1      -4.109  -4.833  56.490  1.00 89.62     0.007 A 
HETATM   34  C21 04A     1      -3.267  -3.710  56.652  1.00 91.47     0.001 A 
HETATM   35  C22 04A     1      -2.884  -3.247  57.925  1.00 91.51     0.000 A 
HETATM   36  C23 04A     1      -3.354  -3.933  59.045  1.00 90.74     0.001 A 
HETATM   37  C24 04A     1      -4.201  -5.052  58.882  1.00 89.16     0.007 A 
ENDBRANCH  31  32
ENDBRANCH  28  31
ENDBRANCH  25  27
ENDBRANCH  21  22
ENDBRANCH  20  21
ENDBRANCH   1  20
TORSDOF 12
ENDMDL
MODEL 4
REMARK VINA RESULT:      -8.0      2.456     14.310
REMARK  12 active torsions:
REMARK  status: ('A' for Active; 'I' for Inactive)
REMARK    1  A    between atoms: C1_2  and  C2_3 
REMARK       I    between atoms: C1_2  and  N1_10 
REMARK    2  A    between atoms: C2_3  and  C3_4 
REMARK    3  A    between atoms: N1_10  and  C9_11 
REMARK    4  A    between atoms: C10_14  and  C11_15 
REMARK    5  A    between atoms: C11_15  and  C12_16 
REMARK    6  A    between atoms: C12_16  and  S1_17 
REMARK    7  A    between atoms: S1_17  and  C13_18 
REMARK    8  A    between atoms: C13_18  and  C14_19 
REMARK    9  A    between atoms: C14_19  and  C15_20 
REMARK   10  A    between atoms: C16_23  and  N6_24 
REMARK       I    between atoms: N6_24  and  C17_25 
REMARK   11  A    between atoms: C17_25  and  C18_27 
REMARK   12  A    between atoms: C18_27  and  C19_28 
ROOT
HETATM    1  S1  04A     1      -9.424  -7.543  54.711  1.00 49.59    -0.168 SA
ENDROOT
BRANCH   1   2
HETATM    2  C12 04A     1      -9.648  -7.578  56.511  1.00 51.84     0.080 C 
BRANCH   2   3
HETATM    3  C11 04A     1     -10.663  -8.580  56.958  1.00 53.50     0.079 C 
BRANCH   3   4
HETATM    4  C10 04A     1     -10.526  -9.928  56.246  1.00 55.63     0.101 A 
HETATM    5  N3  04A     1      -9.524 -10.862  56.367  1.00 54.52    -0.145 NA
HETATM    6  N2  04A     1      -9.681 -11.957  55.605  1.00 51.72    -0.123 NA
HETATM    7  C9  04A     1     -10.816 -11.888  54.878  1.00 56.18     0.196 A 
HETATM    8  S3  04A     1     -11.679 -10.391  55.194  1.00 54.65    -0.033 SA
BRANCH   7   9
HETATM    9  N1  04A     1     -11.269 -12.873  54.116  1.00 57.11    -0.304 N 
HETATM   10  C1  04A     1     -12.039 -13.862  54.607  1.00 61.18     0.227 C 
HETATM   11  O1  04A     1     -12.609 -13.870  55.707  1.00 62.65    -0.273 OA
HETATM   12  H8  04A     1     -11.023 -12.883  53.115  1.00  0.00     0.171 HD
BRANCH  10  13
HETATM   13  C2  04A     1     -12.243 -14.983  53.585  1.00 64.06     0.141 C 
BRANCH  13  14
HETATM   14  C3  04A     1     -11.275 -15.941  53.631  1.00 65.82    -0.050 A 
HETATM   15  C4  04A     1     -10.384 -15.955  54.692  1.00 68.40     0.007 A 
HETATM   16  C5  04A     1      -9.398 -16.941  54.723  1.00 71.17     0.001 A 
HETATM   17  C6  04A     1      -9.331 -17.904  53.709  1.00 71.06     0.000 A 
HETATM   18  C7  04A     1     -10.249 -17.892  52.655  1.00 70.44     0.001 A 
HETATM   19  C8  04A     1     -11.228 -16.900  52.617  1.00 69.17     0.007 A 
ENDBRANCH  13  14
ENDBRANCH  10  13
ENDBRANCH   7   9
ENDBRANCH   3   4
ENDBRANCH   2   3
ENDBRANCH   1   2
BRANCH   1  20
HETATM   20  C13 04A     1      -7.649  -7.170  54.802  1.00 52.04     0.080 C 
BRANCH  20  21
HETATM   21  C14 04A     1      -6.932  -8.012  55.848  1.00 55.91     0.079 C 
BRANCH  21  22
HETATM   22  C15 04A     1      -6.002  -7.095  56.664  1.00 59.63     0.101 A 
HETATM   23  N4  04A     1      -5.264  -7.499  57.730  1.00 59.45    -0.145 NA
HETATM   24  N5  04A     1      -4.496  -6.501  58.327  1.00 61.70    -0.123 NA
HETATM   25  C16 04A     1      -4.615  -5.287  57.756  1.00 65.04     0.196 A 
HETATM   26  S2  04A     1      -5.790  -5.456  56.363  1.00 59.63    -0.033 SA
BRANCH  25  27
HETATM   27  N6  04A     1      -3.919  -4.205  58.183  1.00 69.91    -0.304 N 
HETATM   28  C17 04A     1      -2.892  -3.724  57.451  1.00 76.98     0.227 C 
HETATM   29  O2  04A     1      -2.594  -4.175  56.343  1.00 78.52    -0.273 OA
HETATM   30  H17 04A     1      -4.175  -3.748  59.070  1.00  0.00     0.171 HD
BRANCH  28  31
HETATM   31  C18 04A     1      -2.063  -2.555  58.071  1.00 81.57     0.141 C 
BRANCH  31  32
HETATM   32  C19 04A     1      -2.907  -1.436  58.400  1.00 87.14    -0.050 A 
HETATM   33  C20 04A     1      -2.653  -0.649  59.544  1.00 89.62     0.007 A 
HETATM   34  C21 04A     1      -3.495   0.437  59.873  1.00 91.47     0.001 A 
HETATM   35  C22 04A     1      -4.609   0.779  59.084  1.00 91.51     0.000 A 
HETATM   36  C23 04A     1      -4.878   0.006  57.953  1.00 90.74     0.001 A 
HETATM   37  C24 04A     1      -4.032  -1.076  57.621  1.00 89.16     0.007 A 
ENDBRANCH  31  32
ENDBRANCH  28  31
ENDBRANCH  25  27
ENDBRANCH  21  22
ENDBRANCH  20  21
ENDBRANCH   1  20
TORSDOF 12
ENDMDL
MODEL 5
REMARK VINA RESULT:      -7.9      6.901     11.480
REMARK  12 active torsions:
REMARK  status: ('A' for Active; 'I' for Inactive)
REMARK    1  A    between atoms: C1_2  and  C2_3 
REMARK       I    between atoms: C1_2  and  N1_10 
REMARK    2  A    between atoms: C2_3  and  C3_4 
REMARK    3  A    between atoms: N1_10  and  C9_11 
REMARK    4  A    between atoms: C10_14  and  C11_15 
REMARK    5  A    between atoms: C11_15  and  C12_16 
REMARK    6  A    between atoms: C12_16  and  S1_17 
REMARK    7  A    between atoms: S1_17  and  C13_18 
REMARK    8  A    between atoms: C13_18  and  C14_19 
REMARK    9  A    between atoms: C14_19  and  C15_20 
REMARK   10  A    between atoms: C16_23  and  N6_24 
REMARK       I    between atoms: N6_24  and  C17_25 
REMARK   11  A    between atoms: C17_25  and  C18_27 
REMARK   12  A    between atoms: C18_27  and  C19_28 
ROOT
HETATM    1  S1  04A     1      -8.304  -6.547  55.233  1.00 49.59    -0.168 SA
ENDROOT
BRANCH   1   2
HETATM    2  C12 04A     1      -7.352  -8.008  55.734  1.00 51.84     0.080 C 
BRANCH   2   3
HETATM    3  C11 04A     1      -6.907  -8.844  54.578  1.00 53.50     0.079 C 
BRANCH   3   4
HETATM    4  C10 04A     1      -7.165 -10.339  54.786  1.00 55.63     0.101 A 
HETATM    5  N3  04A     1      -6.406 -11.249  55.486  1.00 54.52    -0.145 NA
HETATM    6  N2  04A     1      -6.893 -12.500  55.490  1.00 51.72    -0.123 NA
HETATM    7  C9  04A     1      -8.045 -12.580  54.791  1.00 56.18     0.196 A 
HETATM    8  S3  04A     1      -8.492 -11.015  54.130  1.00 54.65    -0.033 SA
BRANCH   7   9
HETATM    9  N1  04A     1      -8.790 -13.673  54.713  1.00 57.11    -0.304 N 
HETATM   10  C1  04A     1      -9.708 -13.980  55.649  1.00 61.18     0.227 C 
HETATM   11  O1  04A     1     -10.140 -13.223  56.529  1.00 62.65    -0.273 OA
HETATM   12  H8  04A     1      -8.664 -14.307  53.911  1.00  0.00     0.171 HD
BRANCH  10  13
HETATM   13  C2  04A     1     -10.272 -15.389  55.448  1.00 64.06     0.141 C 
BRANCH  13  14
HETATM   14  C3  04A     1     -11.028 -15.513  54.320  1.00 65.82    -0.050 A 
HETATM   15  C4  04A     1     -10.738 -16.522  53.416  1.00 68.40     0.007 A 
HETATM   16  C5  04A     1     -11.520 -16.634  52.267  1.00 71.17     0.001 A 
HETATM   17  C6  04A     1     -12.586 -15.754  52.050  1.00 71.06     0.000 A 
HETATM   18  C7  04A     1     -12.882 -14.753  52.980  1.00 70.44     0.001 A 
HETATM   19  C8  04A     1     -12.094 -14.633  54.124  1.00 69.17     0.007 A 
ENDBRANCH  13  14
ENDBRANCH  10  13
ENDBRANCH   7   9
ENDBRANCH   3   4
ENDBRANCH   2   3
ENDBRANCH   1   2
BRANCH   1  20
HETATM   20  C13 04A     1      -9.906  -7.260  55.708  1.00 52.04     0.080 C 
BRANCH  20  21
HETATM   21  C14 04A     1      -9.821  -8.075  56.991  1.00 55.91     0.079 C 
BRANCH  21  22
HETATM   22  C15 04A     1     -11.011  -9.052  57.032  1.00 59.63     0.101 A 
HETATM   23  N4  04A     1     -11.098 -10.124  57.859  1.00 59.45    -0.145 NA
HETATM   24  N5  04A     1     -12.262 -10.880  57.725  1.00 61.70    -0.123 NA
HETATM   25  C16 04A     1     -13.115 -10.430  56.785  1.00 65.04     0.196 A 
HETATM   26  S2  04A     1     -12.360  -8.939  56.037  1.00 59.63    -0.033 SA
BRANCH  25  27
HETATM   27  N6  04A     1     -14.309 -11.020  56.536  1.00 69.91    -0.304 N 
HETATM   28  C17 04A     1     -15.398 -10.266  56.272  1.00 76.98     0.227 C 
HETATM   29  O2  04A     1     -15.349  -9.040  56.158  1.00 78.52    -0.273 OA
HETATM   30  H17 04A     1     -14.387 -12.047  56.550  1.00  0.00     0.171 HD
BRANCH  28  31
HETATM   31  C18 04A     1     -16.761 -11.014  56.121  1.00 81.57     0.141 C 
BRANCH  31  32
HETATM   32  C19 04A     1     -16.651 -12.116  55.201  1.00 87.14    -0.050 A 
HETATM   33  C20 04A     1     -16.386 -13.423  55.663  1.00 89.62     0.007 A 
HETATM   34  C21 04A     1     -16.261 -14.497  54.755  1.00 91.47     0.001 A 
HETATM   35  C22 04A     1     -16.394 -14.315  53.366  1.00 91.51     0.000 A 
HETATM   36  C23 04A     1     -16.650 -13.027  52.891  1.00 90.74     0.001 A 
HETATM   37  C24 04A     1     -16.781 -11.954  53.801  1.00 89.16     0.007 A 
ENDBRANCH  31  32
ENDBRANCH  28  31
ENDBRANCH  25  27
ENDBRANCH  21  22
ENDBRANCH  20  21
ENDBRANCH   1  20
TORSDOF 12
ENDMDL
MODEL 6
REMARK VINA RESULT:      -7.8      7.841     15.265
REMARK  12 active torsions:
REMARK  status: ('A' for Active; 'I' for Inactive)
REMARK    1  A    between atoms: C1_2  and  C2_3 
REMARK       I    between atoms: C1_2  and  N1_10 
REMARK    2  A    between atoms: C2_3  and  C3_4 
REMARK    3  A    between atoms: N1_10  and  C9_11 
REMARK    4  A    between atoms: C10_14  and  C11_15 
REMARK    5  A    between atoms: C11_15  and  C12_16 
REMARK    6  A    between atoms: C12_16  and  S1_17 
REMARK    7  A    between atoms: S1_17  and  C13_18 
REMARK    8  A    between atoms: C13_18  and  C14_19 
REMARK    9  A    between atoms: C14_19  and  C15_20 
REMARK   10  A    between atoms: C16_23  and  N6_24 
REMARK       I    between atoms: N6_24  and  C17_25 
REMARK   11  A    between atoms: C17_25  and  C18_27 
REMARK   12  A    between atoms: C18_27  and  C19_28 
ROOT
HETATM    1  S1  04A     1      -0.780   4.699  58.437  1.00 49.59    -0.168 SA
ENDROOT
BRANCH   1   2
HETATM    2  C12 04A     1      -2.384   4.194  57.755  1.00 51.84     0.080 C 
BRANCH   2   3
HETATM    3  C11 04A     1      -3.455   4.086  58.791  1.00 53.50     0.079 C 
BRANCH   3   4
HETATM    4  C10 04A     1      -3.870   2.639  59.073  1.00 55.63     0.101 A 
HETATM    5  N3  04A     1      -5.119   2.152  59.383  1.00 54.52    -0.145 NA
HETATM    6  N2  04A     1      -5.171   0.825  59.578  1.00 51.72    -0.123 NA
HETATM    7  C9  04A     1      -3.956   0.258  59.420  1.00 56.18     0.196 A 
HETATM    8  S3  04A     1      -2.745   1.464  59.013  1.00 54.65    -0.033 SA
BRANCH   7   9
HETATM    9  N1  04A     1      -3.736  -1.048  59.459  1.00 57.11    -0.304 N 
HETATM   10  C1  04A     1      -3.617  -1.786  58.339  1.00 61.18     0.227 C 
HETATM   11  O1  04A     1      -3.455  -1.354  57.190  1.00 62.65    -0.273 OA
HETATM   12  H8  04A     1      -3.655  -1.514  60.374  1.00  0.00     0.171 HD
BRANCH  10  13
HETATM   13  C2  04A     1      -3.590  -3.285  58.649  1.00 64.06     0.141 C 
BRANCH  13  14
HETATM   14  C3  04A     1      -3.768  -4.069  57.548  1.00 65.82    -0.050 A 
HETATM   15  C4  04A     1      -5.012  -4.627  57.305  1.00 68.40     0.007 A 
HETATM   16  C5  04A     1      -5.177  -5.428  56.176  1.00 71.17     0.001 A 
HETATM   17  C6  04A     1      -4.106  -5.641  55.299  1.00 71.06     0.000 A 
HETATM   18  C7  04A     1      -2.860  -5.055  55.543  1.00 70.44     0.001 A 
HETATM   19  C8  04A     1      -2.692  -4.262  56.679  1.00 69.17     0.007 A 
ENDBRANCH  13  14
ENDBRANCH  10  13
ENDBRANCH   7   9
ENDBRANCH   3   4
ENDBRANCH   2   3
ENDBRANCH   1   2
BRANCH   1  20
HETATM   20  C13 04A     1       0.153   4.224  56.952  1.00 52.04     0.080 C 
BRANCH  20  21
HETATM   21  C14 04A     1       1.443   5.017  56.798  1.00 55.91     0.079 C 
BRANCH  21  22
HETATM   22  C15 04A     1       2.459   4.157  56.024  1.00 59.63     0.101 A 
HETATM   23  N4  04A     1       2.438   3.962  54.681  1.00 59.45    -0.145 NA
HETATM   24  N5  04A     1       3.450   3.141  54.188  1.00 61.70    -0.123 NA
HETATM   25  C16 04A     1       4.288   2.661  55.127  1.00 65.04     0.196 A 
HETATM   26  S2  04A     1       3.726   3.319  56.741  1.00 59.63    -0.033 SA
BRANCH  25  27
HETATM   27  N6  04A     1       5.348   1.872  54.829  1.00 69.91    -0.304 N 
HETATM   28  C17 04A     1       5.166   0.563  54.551  1.00 76.98     0.227 C 
HETATM   29  O2  04A     1       4.049   0.048  54.468  1.00 78.52    -0.273 OA
HETATM   30  H17 04A     1       6.297   2.272  54.815  1.00  0.00     0.171 HD
BRANCH  28  31
HETATM   31  C18 04A     1       6.447  -0.305  54.342  1.00 81.57     0.141 C 
BRANCH  31  32
HETATM   32  C19 04A     1       6.928  -0.831  55.593  1.00 87.14    -0.050 A 
HETATM   33  C20 04A     1       6.087  -1.596  56.429  1.00 89.62     0.007 A 
HETATM   34  C21 04A     1       6.558  -2.095  57.664  1.00 91.47     0.001 A 
HETATM   35  C22 04A     1       7.871  -1.854  58.110  1.00 91.51     0.000 A 
HETATM   36  C23 04A     1       8.714  -1.094  57.298  1.00 90.74     0.001 A 
HETATM   37  C24 04A     1       8.244  -0.600  56.060  1.00 89.16     0.007 A 
ENDBRANCH  31  32
ENDBRANCH  28  31
ENDBRANCH  25  27
ENDBRANCH  21  22
ENDBRANCH  20  21
ENDBRANCH   1  20
TORSDOF 12
ENDMDL
MODEL 7
REMARK VINA RESULT:      -7.6      7.030     11.960
REMARK  12 active torsions:
REMARK  status: ('A' for Active; 'I' for Inactive)
REMARK    1  A    between atoms: C1_2  and  C2_3 
REMARK       I    between atoms: C1_2  and  N1_10 
REMARK    2  A    between atoms: C2_3  and  C3_4 
REMARK    3  A    between atoms: N1_10  and  C9_11 
REMARK    4  A    between atoms: C10_14  and  C11_15 
REMARK    5  A    between atoms: C11_15  and  C12_16 
REMARK    6  A    between atoms: C12_16  and  S1_17 
REMARK    7  A    between atoms: S1_17  and  C13_18 
REMARK    8  A    between atoms: C13_18  and  C14_19 
REMARK    9  A    between atoms: C14_19  and  C15_20 
REMARK   10  A    between atoms: C16_23  and  N6_24 
REMARK       I    between atoms: N6_24  and  C17_25 
REMARK   11  A    between atoms: C17_25  and  C18_27 
REMARK   12  A    between atoms: C18_27  and  C19_28 
ROOT
HETATM    1  S1  04A     1      -7.699  -6.587  54.116  1.00 49.59    -0.168 SA
ENDROOT
BRANCH   1   2
HETATM    2  C12 04A     1      -7.394  -8.136  55.010  1.00 51.84     0.080 C 
BRANCH   2   3
HETATM    3  C11 04A     1      -6.647  -9.145  54.200  1.00 53.50     0.079 C 
BRANCH   3   4
HETATM    4  C10 04A     1      -7.018 -10.588  54.553  1.00 55.63     0.101 A 
HETATM    5  N3  04A     1      -6.449 -11.412  55.497  1.00 54.52    -0.145 NA
HETATM    6  N2  04A     1      -6.994 -12.636  55.576  1.00 51.72    -0.123 NA
HETATM    7  C9  04A     1      -8.001 -12.782  54.690  1.00 56.18     0.196 A 
HETATM    8  S3  04A     1      -8.237 -11.313  53.755  1.00 54.65    -0.033 SA
BRANCH   7   9
HETATM    9  N1  04A     1      -8.777 -13.854  54.619  1.00 57.11    -0.304 N 
HETATM   10  C1  04A     1      -9.743 -14.098  55.525  1.00 61.18     0.227 C 
HETATM   11  O1  04A     1     -10.188 -13.296  56.357  1.00 62.65    -0.273 OA
HETATM   12  H8  04A     1      -8.637 -14.521  53.847  1.00  0.00     0.171 HD
BRANCH  10  13
HETATM   13  C2  04A     1     -10.343 -15.496  55.350  1.00 64.06     0.141 C 
BRANCH  13  14
HETATM   14  C3  04A     1     -11.098 -15.624  54.223  1.00 65.82    -0.050 A 
HETATM   15  C4  04A     1     -12.139 -14.737  53.998  1.00 68.40     0.007 A 
HETATM   16  C5  04A     1     -12.903 -14.883  52.841  1.00 71.17     0.001 A 
HETATM   17  C6  04A     1     -12.605 -15.896  51.922  1.00 71.06     0.000 A 
HETATM   18  C7  04A     1     -11.539 -16.771  52.149  1.00 70.44     0.001 A 
HETATM   19  C8  04A     1     -10.780 -16.632  53.311  1.00 69.17     0.007 A 
ENDBRANCH  13  14
ENDBRANCH  10  13
ENDBRANCH   7   9
ENDBRANCH   3   4
ENDBRANCH   2   3
ENDBRANCH   1   2
BRANCH   1  20
HETATM   20  C13 04A     1      -9.491  -6.611  54.411  1.00 52.04     0.080 C 
BRANCH  20  21
HETATM   21  C14 04A     1     -10.188  -7.733  53.655  1.00 55.91     0.079 C 
BRANCH  21  22
HETATM   22  C15 04A     1     -11.196  -8.412  54.603  1.00 59.63     0.101 A 
HETATM   23  N4  04A     1     -10.928  -8.768  55.885  1.00 59.45    -0.145 NA
HETATM   24  N5  04A     1     -11.984  -9.376  56.561  1.00 61.70    -0.123 NA
HETATM   25  C16 04A     1     -13.105  -9.524  55.830  1.00 65.04     0.196 A 
HETATM   26  S2  04A     1     -12.764  -8.829  54.170  1.00 59.63    -0.033 SA
BRANCH  25  27
HETATM   27  N6  04A     1     -14.241 -10.066  56.331  1.00 69.91    -0.304 N 
HETATM   28  C17 04A     1     -14.587 -11.332  56.016  1.00 76.98     0.227 C 
HETATM   29  O2  04A     1     -13.866 -12.074  55.346  1.00 78.52    -0.273 OA
HETATM   30  H17 04A     1     -14.844  -9.509  56.954  1.00  0.00     0.171 HD
BRANCH  28  31
HETATM   31  C18 04A     1     -15.972 -11.840  56.530  1.00 81.57     0.141 C 
BRANCH  31  32
HETATM   32  C19 04A     1     -17.046 -11.027  56.021  1.00 87.14    -0.050 A 
HETATM   33  C20 04A     1     -17.256 -10.891  54.632  1.00 89.62     0.007 A 
HETATM   34  C21 04A     1     -18.300 -10.078  54.137  1.00 91.47     0.001 A 
HETATM   35  C22 04A     1     -19.166  -9.376  54.996  1.00 91.51     0.000 A 
HETATM   36  C23 04A     1     -18.968  -9.495  56.373  1.00 90.74     0.001 A 
HETATM   37  C24 04A     1     -17.927 -10.313  56.867  1.00 89.16     0.007 A 
ENDBRANCH  31  32
ENDBRANCH  28  31
ENDBRANCH  25  27
ENDBRANCH  21  22
ENDBRANCH  20  21
ENDBRANCH   1  20
TORSDOF 12
ENDMDL
MODEL 8
REMARK VINA RESULT:      -7.5      5.726     15.334
REMARK  12 active torsions:
REMARK  status: ('A' for Active; 'I' for Inactive)
REMARK    1  A    between atoms: C1_2  and  C2_3 
REMARK       I    between atoms: C1_2  and  N1_10 
REMARK    2  A    between atoms: C2_3  and  C3_4 
REMARK    3  A    between atoms: N1_10  and  C9_11 
REMARK    4  A    between atoms: C10_14  and  C11_15 
REMARK    5  A    between atoms: C11_15  and  C12_16 
REMARK    6  A    between atoms: C12_16  and  S1_17 
REMARK    7  A    between atoms: S1_17  and  C13_18 
REMARK    8  A    between atoms: C13_18  and  C14_19 
REMARK    9  A    between atoms: C14_19  and  C15_20 
REMARK   10  A    between atoms: C16_23  and  N6_24 
REMARK       I    between atoms: N6_24  and  C17_25 
REMARK   11  A    between atoms: C17_25  and  C18_27 
REMARK   12  A    between atoms: C18_27  and  C19_28 
ROOT
HETATM    1  S1  04A     1      -2.755   2.690  58.179  1.00 49.59    -0.168 SA
ENDROOT
BRANCH   1   2
HETATM    2  C12 04A     1      -3.815   1.722  59.288  1.00 51.84     0.080 C 
BRANCH   2   3
HETATM    3  C11 04A     1      -3.125   0.531  59.870  1.00 53.50     0.079 C 
BRANCH   3   4
HETATM    4  C10 04A     1      -2.951  -0.609  58.862  1.00 55.63     0.101 A 
HETATM    5  N3  04A     1      -1.823  -1.350  58.596  1.00 54.52    -0.145 NA
HETATM    6  N2  04A     1      -1.978  -2.289  57.649  1.00 51.72    -0.123 NA
HETATM    7  C9  04A     1      -3.239  -2.293  57.165  1.00 56.18     0.196 A 
HETATM    8  S3  04A     1      -4.220  -1.066  57.952  1.00 54.65    -0.033 SA
BRANCH   7   9
HETATM    9  N1  04A     1      -3.696  -3.180  56.294  1.00 57.11    -0.304 N 
HETATM   10  C1  04A     1      -4.208  -4.363  56.681  1.00 61.18     0.227 C 
HETATM   11  O1  04A     1      -4.537  -4.679  57.832  1.00 62.65    -0.273 OA
HETATM   12  H8  04A     1      -3.657  -2.958  55.289  1.00  0.00     0.171 HD
BRANCH  10  13
HETATM   13  C2  04A     1      -4.458  -5.290  55.488  1.00 64.06     0.141 C 
BRANCH  13  14
HETATM   14  C3  04A     1      -5.386  -6.257  55.738  1.00 65.82    -0.050 A 
HETATM   15  C4  04A     1      -4.964  -7.538  56.053  1.00 68.40     0.007 A 
HETATM   16  C5  04A     1      -5.926  -8.515  56.304  1.00 71.17     0.001 A 
HETATM   17  C6  04A     1      -7.288  -8.194  56.256  1.00 71.06     0.000 A 
HETATM   18  C7  04A     1      -7.701  -6.892  55.958  1.00 70.44     0.001 A 
HETATM   19  C8  04A     1      -6.739  -5.916  55.696  1.00 69.17     0.007 A 
ENDBRANCH  13  14
ENDBRANCH  10  13
ENDBRANCH   7   9
ENDBRANCH   3   4
ENDBRANCH   2   3
ENDBRANCH   1   2
BRANCH   1  20
HETATM   20  C13 04A     1      -2.160   3.796  59.492  1.00 52.04     0.080 C 
BRANCH  20  21
HETATM   21  C14 04A     1      -1.375   4.979  58.944  1.00 55.91     0.079 C 
BRANCH  21  22
HETATM   22  C15 04A     1      -0.013   4.471  58.433  1.00 59.63     0.101 A 
HETATM   23  N4  04A     1       1.105   4.369  59.195  1.00 59.45    -0.145 NA
HETATM   24  N5  04A     1       2.232   3.890  58.528  1.00 61.70    -0.123 NA
HETATM   25  C16 04A     1       2.033   3.613  57.225  1.00 65.04     0.196 A 
HETATM   26  S2  04A     1       0.282   3.994  56.850  1.00 59.63    -0.033 SA
BRANCH  25  27
HETATM   27  N6  04A     1       3.006   3.110  56.427  1.00 69.91    -0.304 N 
HETATM   28  C17 04A     1       3.783   3.938  55.697  1.00 76.98     0.227 C 
HETATM   29  O2  04A     1       3.713   5.166  55.781  1.00 78.52    -0.273 OA
HETATM   30  H17 04A     1       3.153   2.091  56.376  1.00  0.00     0.171 HD
BRANCH  28  31
HETATM   31  C18 04A     1       4.795   3.276  54.708  1.00 81.57     0.141 C 
BRANCH  31  32
HETATM   32  C19 04A     1       5.128   1.938  55.122  1.00 87.14    -0.050 A 
HETATM   33  C20 04A     1       6.009   1.712  56.201  1.00 89.62     0.007 A 
HETATM   34  C21 04A     1       6.347   0.397  56.592  1.00 91.47     0.001 A 
HETATM   35  C22 04A     1       5.827  -0.732  55.931  1.00 91.51     0.000 A 
HETATM   36  C23 04A     1       4.959  -0.525  54.858  1.00 90.74     0.001 A 
HETATM   37  C24 04A     1       4.616   0.790  54.472  1.00 89.16     0.007 A 
ENDBRANCH  31  32
ENDBRANCH  28  31
ENDBRANCH  25  27
ENDBRANCH  21  22
ENDBRANCH  20  21
ENDBRANCH   1  20
TORSDOF 12
ENDMDL
MODEL 9
REMARK VINA RESULT:      -7.3      6.813     11.333
REMARK  12 active torsions:
REMARK  status: ('A' for Active; 'I' for Inactive)
REMARK    1  A    between atoms: C1_2  and  C2_3 
REMARK       I    between atoms: C1_2  and  N1_10 
REMARK    2  A    between atoms: C2_3  and  C3_4 
REMARK    3  A    between atoms: N1_10  and  C9_11 
REMARK    4  A    between atoms: C10_14  and  C11_15 
REMARK    5  A    between atoms: C11_15  and  C12_16 
REMARK    6  A    between atoms: C12_16  and  S1_17 
REMARK    7  A    between atoms: S1_17  and  C13_18 
REMARK    8  A    between atoms: C13_18  and  C14_19 
REMARK    9  A    between atoms: C14_19  and  C15_20 
REMARK   10  A    between atoms: C16_23  and  N6_24 
REMARK       I    between atoms: N6_24  and  C17_25 
REMARK   11  A    between atoms: C17_25  and  C18_27 
REMARK   12  A    between atoms: C18_27  and  C19_28 
ROOT
HETATM    1  S1  04A     1      -8.307  -8.165  53.342  1.00 49.59    -0.168 SA
ENDROOT
BRANCH   1   2
HETATM    2  C12 04A     1      -6.953  -7.549  54.380  1.00 51.84     0.080 C 
BRANCH   2   3
HETATM    3  C11 04A     1      -6.427  -8.575  55.331  1.00 53.50     0.079 C 
BRANCH   3   4
HETATM    4  C10 04A     1      -7.505  -9.549  55.816  1.00 55.63     0.101 A 
HETATM    5  N3  04A     1      -8.541  -9.313  56.690  1.00 54.52    -0.145 NA
HETATM    6  N2  04A     1      -9.330 -10.373  56.925  1.00 51.72    -0.123 NA
HETATM    7  C9  04A     1      -8.917 -11.454  56.231  1.00 56.18     0.196 A 
HETATM    8  S3  04A     1      -7.496 -11.081  55.268  1.00 54.65    -0.033 SA
BRANCH   7   9
HETATM    9  N1  04A     1      -9.568 -12.608  56.199  1.00 57.11    -0.304 N 
HETATM   10  C1  04A     1     -10.853 -12.693  55.805  1.00 61.18     0.227 C 
HETATM   11  O1  04A     1     -11.501 -11.814  55.219  1.00 62.65    -0.273 OA
HETATM   12  H8  04A     1      -9.077 -13.467  56.484  1.00  0.00     0.171 HD
BRANCH  10  13
HETATM   13  C2  04A     1     -11.435 -14.084  56.067  1.00 64.06     0.141 C 
BRANCH  13  14
HETATM   14  C3  04A     1     -11.223 -14.961  55.045  1.00 65.82    -0.050 A 
HETATM   15  C4  04A     1     -12.009 -14.880  53.906  1.00 68.40     0.007 A 
HETATM   16  C5  04A     1     -11.779 -15.785  52.871  1.00 71.17     0.001 A 
HETATM   17  C6  04A     1     -10.762 -16.740  52.981  1.00 71.06     0.000 A 
HETATM   18  C7  04A     1      -9.962 -16.799  54.126  1.00 70.44     0.001 A 
HETATM   19  C8  04A     1     -10.197 -15.900  55.166  1.00 69.17     0.007 A 
ENDBRANCH  13  14
ENDBRANCH  10  13
ENDBRANCH   7   9
ENDBRANCH   3   4
ENDBRANCH   2   3
ENDBRANCH   1   2
BRANCH   1  20
HETATM   20  C13 04A     1      -8.781  -6.516  52.747  1.00 52.04     0.080 C 
BRANCH  20  21
HETATM   21  C14 04A     1     -10.263  -6.425  52.407  1.00 55.91     0.079 C 
BRANCH  21  22
HETATM   22  C15 04A     1     -11.068  -7.086  53.542  1.00 59.63     0.101 A 
HETATM   23  N4  04A     1     -11.177  -6.589  54.800  1.00 59.45    -0.145 NA
HETATM   24  N5  04A     1     -11.950  -7.353  55.672  1.00 61.70    -0.123 NA
HETATM   25  C16 04A     1     -12.462  -8.474  55.129  1.00 65.04     0.196 A 
HETATM   26  S2  04A     1     -11.906  -8.534  53.386  1.00 59.63    -0.033 SA
BRANCH  25  27
HETATM   27  N6  04A     1     -13.263  -9.322  55.818  1.00 69.91    -0.304 N 
HETATM   28  C17 04A     1     -14.605  -9.195  55.751  1.00 76.98     0.227 C 
HETATM   29  O2  04A     1     -15.163  -8.380  55.013  1.00 78.52    -0.273 OA
HETATM   30  H17 04A     1     -12.846 -10.067  56.395  1.00  0.00     0.171 HD
BRANCH  28  31
HETATM   31  C18 04A     1     -15.455 -10.129  56.671  1.00 81.57     0.141 C 
BRANCH  31  32
HETATM   32  C19 04A     1     -15.659 -11.417  56.059  1.00 87.14    -0.050 A 
HETATM   33  C20 04A     1     -14.867 -12.526  56.424  1.00 89.62     0.007 A 
HETATM   34  C21 04A     1     -15.059 -13.783  55.808  1.00 91.47     0.001 A 
HETATM   35  C22 04A     1     -16.036 -13.981  54.815  1.00 91.51     0.000 A 
HETATM   36  C23 04A     1     -16.824 -12.892  54.438  1.00 90.74     0.001 A 
HETATM   37  C24 04A     1     -16.635 -11.637  55.059  1.00 89.16     0.007 A 
ENDBRANCH  31  32
ENDBRANCH  28  31
ENDBRANCH  25  27
ENDBRANCH  21  22
ENDBRANCH  20  21
ENDBRANCH   1  20
TORSDOF 12
ENDMDL
