04A
  CCTOOLS-1202111019

 59 62  0  0  0  0  0  0  0  0999 V2000
    6.9850   -5.7580   45.9400 O   0  0  0  0  0
   -4.9610   -6.2090   44.7690 O   0  0  0  0  0
    9.0220   -1.3960   46.3760 C   0  0  0  0  0
   -9.7950   -5.4310   44.1140 C   0  0  0  0  0
    7.7730   -1.5590   46.9870 C   0  0  0  0  0
    9.9320   -2.4560   46.3250 C   0  0  0  0  0
   -9.2170   -4.1690   43.8820 C   0  0  0  0  0
   -9.0090   -6.5650   43.9020 C   0  0  0  0  0
    7.4210   -2.7840   47.5520 C   0  0  0  0  0
    9.5770   -3.6850   46.8810 C   0  0  0  0  0
   -7.8820   -4.0300   43.4410 C   0  0  0  0  0
   -7.6760   -6.4250   43.4550 C   0  0  0  0  0
    2.1050  -10.0600   44.9830 C   0  0  0  0  0
    0.1240   -9.2660   46.5720 C   0  0  0  0  0
    3.5880   -9.8850   44.9210 C   0  0  0  0  0
   -1.0160  -10.0530   45.9410 C   0  0  0  0  0
    7.9940   -5.0380   48.0230 C   0  0  0  0  0
   -5.7090   -5.0290   42.7840 C   0  0  0  0  0
    3.8320   -9.0900   47.4040 N   0  0  0  0  0
   -1.4980   -9.2760   43.5430 N   0  0  0  0  0
    4.4800   -8.1980   48.1700 N   0  0  0  0  0
   -2.2120   -8.3670   42.7640 N   0  0  0  0  0
    6.1360   -6.5290   47.9420 N   0  0  0  0  0
   -3.7690   -6.5820   42.8760 N   0  0  0  0  0
    1.2180   -8.5160   45.3310 S   0  0  0  0  0
    5.2320   -7.8690   45.7330 S   0  0  0  0  0
   -2.7660   -7.9210   45.2380 S   0  0  0  0  0
    7.0020   -5.8390   47.1760 C   0  0  0  0  0
   -4.7690   -5.9980   43.5700 C   0  0  0  0  0
    8.3230   -3.8330   47.4770 C   0  0  0  0  0
   -7.0760   -5.1660   43.2160 C   0  0  0  0  0
    4.1370   -9.0270   46.0640 C   0  0  0  0  0
   -1.6970   -9.1670   44.8810 C   0  0  0  0  0
    5.3040   -7.4250   47.4310 C   0  0  0  0  0
   -2.9820   -7.5140   43.4660 C   0  0  0  0  0
    9.2850   -0.4430   45.9400 H   0  0  0  0  0
  -10.8190   -5.5200   44.4470 H   0  0  0  0  0
    7.0790   -0.7320   47.0210 H   0  0  0  0  0
   10.8980   -2.3250   45.8610 H   0  0  0  0  0
   -9.8110   -3.2820   44.0460 H   0  0  0  0  0
   -9.4190   -7.5480   44.0790 H   0  0  0  0  0
    6.4650   -2.9130   48.0380 H   0  0  0  0  0
   10.2670   -4.5160   46.8510 H   0  0  0  0  0
   -7.4740   -3.0440   43.2740 H   0  0  0  0  0
   -7.0900   -7.3170   43.2890 H   0  0  0  0  0
    1.7580  -10.4520   44.0150 H   0  0  0  0  0
    1.8710  -10.7840   45.7770 H   0  0  0  0  0
    0.7170   -9.9460   47.2010 H   0  0  0  0  0
   -0.3020   -8.4670   47.1970 H   0  0  0  0  0
    4.0600  -10.8770   44.9690 H   0  0  0  0  0
    3.8450   -9.4030   43.9660 H   0  0  0  0  0
   -0.6200  -10.9620   45.4650 H   0  0  0  0  0
   -1.7460  -10.3330   46.7150 H   0  0  0  0  0
    7.5450   -4.8620   49.0120 H   0  0  0  0  0
    8.9130   -5.6310   48.1380 H   0  0  0  0  0
   -5.6470   -5.2610   41.7110 H   0  0  0  0  0
   -5.3810   -3.9930   42.9550 H   0  0  0  0  0
    6.1200   -6.3600   48.9270 H   0  0  0  0  0
   -3.6080   -6.3260   41.9230 H   0  0  0  0  0
  1 28  2  0  0  0
  3  5  1  0  0  0
  3 36  1  0  0  0
  4 37  1  0  0  0
  5  9  2  0  0  0
  5 38  1  0  0  0
  6  3  2  0  0  0
  6 10  1  0  0  0
  6 39  1  0  0  0
  7  4  2  0  0  0
  7 40  1  0  0  0
  8  4  1  0  0  0
  8 41  1  0  0  0
  9 42  1  0  0  0
 10 30  2  0  0  0
 10 43  1  0  0  0
 11  7  1  0  0  0
 11 44  1  0  0  0
 12  8  2  0  0  0
 12 45  1  0  0  0
 13 25  1  0  0  0
 13 46  1  0  0  0
 13 47  1  0  0  0
 14 48  1  0  0  0
 14 49  1  0  0  0
 15 13  1  0  0  0
 15 32  1  0  0  0
 15 50  1  0  0  0
 15 51  1  0  0  0
 16 14  1  0  0  0
 16 52  1  0  0  0
 16 53  1  0  0  0
 17 54  1  0  0  0
 17 55  1  0  0  0
 18 31  1  0  0  0
 18 29  1  0  0  0
 18 56  1  0  0  0
 18 57  1  0  0  0
 19 21  1  0  0  0
 20 33  2  0  0  0
 22 20  1  0  0  0
 22 35  2  0  0  0
 23 58  1  0  0  0
 24 35  1  0  0  0
 24 29  1  0  0  0
 24 59  1  0  0  0
 25 14  1  0  0  0
 26 32  1  0  0  0
 26 34  1  0  0  0
 28 17  1  0  0  0
 28 23  1  0  0  0
 29  2  2  0  0  0
 30  9  1  0  0  0
 30 17  1  0  0  0
 31 11  2  0  0  0
 31 12  1  0  0  0
 32 19  2  0  0  0
 33 16  1  0  0  0
 33 27  1  0  0  0
 34 21  2  0  0  0
 34 23  1  0  0  0
 35 27  1  0  0  0
M  END
$$$$