C22H23N7OS
APtclcactv06261821593D 0   0.00000     0.00000
 
 54 58  0  0  0  0  0  0  0  0999 V2000
   -2.2219    1.7011    0.1323 S   0  0  0  0  0  0  0  0  0  0  0  0
   -3.3091    0.3299   -0.0590 C   0  0  0  0  0  0  0  0  0  0  0  0
   -4.6899    0.3659    0.1115 N   0  0  0  0  0  0  0  0  0  0  0  0
   -5.4199   -0.7534   -0.0632 C   0  0  0  0  0  0  0  0  0  0  0  0
   -4.8722   -1.7947   -0.3696 O   0  0  0  0  0  0  0  0  0  0  0  0
   -6.8863   -0.7151    0.1178 C   0  0  0  0  0  0  0  0  0  0  0  0
   -7.6454   -1.8728   -0.0623 C   0  0  0  0  0  0  0  0  0  0  0  0
   -9.0136   -1.8302    0.1087 C   0  0  0  0  0  0  0  0  0  0  0  0
   -9.6337   -0.6435    0.4574 C   0  0  0  0  0  0  0  0  0  0  0  0
   -8.8873    0.5075    0.6375 C   0  0  0  0  0  0  0  0  0  0  0  0
   -7.5176    0.4775    0.4753 C   0  0  0  0  0  0  0  0  0  0  0  0
   -2.6202   -0.7180   -0.3843 N   0  0  0  0  0  0  0  0  0  0  0  0
   -1.2610   -0.5255   -0.4996 N   0  0  0  0  0  0  0  0  0  0  0  0
   -0.8443    0.6806   -0.2678 C   0  0  0  0  0  0  0  0  0  0  0  0
    0.4782    1.1004   -0.3266 N   0  0  0  0  0  0  0  0  0  0  0  0
    1.3731   -0.0175   -0.6927 C   0  0  0  0  0  0  0  0  0  0  0  0
    2.5992    0.4269   -1.3460 C   0  0  0  0  0  0  0  0  0  0  0  0
    3.4358    1.3412   -0.4232 C   0  0  0  0  0  0  0  0  0  0  0  0
    4.8669    1.4358   -0.9562 C   0  0  0  0  0  0  0  0  0  0  0  0
    5.5235    0.0818   -0.8756 C   0  0  0  0  0  0  0  0  0  0  0  0
    5.5144   -0.8388   -1.8048 N   0  0  0  0  0  0  0  0  0  0  0  0
    6.1699   -1.8746   -1.4133 N   0  0  0  0  0  0  0  0  0  0  0  0
    6.6390   -1.6651   -0.1941 C   0  0  0  0  0  0  0  0  0  0  0  0
    7.4068   -2.4414    0.6952 C   0  0  0  0  0  0  0  0  0  0  0  0
    7.7356   -1.9281    1.9111 C   0  0  0  0  0  0  0  0  0  0  0  0
    7.3069   -0.6364    2.2619 C   0  0  0  0  0  0  0  0  0  0  0  0
    6.5715    0.0960    1.3993 C   0  0  0  0  0  0  0  0  0  0  0  0
    6.2391   -0.4040    0.1748 N   0  0  0  0  0  0  0  0  0  0  0  0
    2.8140    2.7111   -0.4026 C   0  0  0  0  0  0  0  0  0  0  0  0
    1.7994    2.8963    0.7450 C   0  0  0  0  0  0  0  0  0  0  0  0
    0.8995    1.6603    0.9346 C   0  0  0  0  0  0  0  0  0  0  0  0
   -5.1269    1.1967    0.3559 H   0  0  0  0  0  0  0  0  0  0  0  0
   -7.1626   -2.7995   -0.3352 H   0  0  0  0  0  0  0  0  0  0  0  0
   -9.6021   -2.7250   -0.0303 H   0  0  0  0  0  0  0  0  0  0  0  0
  -10.7053   -0.6154    0.5894 H   0  0  0  0  0  0  0  0  0  0  0  0
   -9.3775    1.4306    0.9097 H   0  0  0  0  0  0  0  0  0  0  0  0
   -6.9361    1.3766    0.6161 H   0  0  0  0  0  0  0  0  0  0  0  0
    1.6361   -0.5672    0.2111 H   0  0  0  0  0  0  0  0  0  0  0  0
    0.8396   -0.6882   -1.3662 H   0  0  0  0  0  0  0  0  0  0  0  0
    3.1941   -0.4452   -1.6172 H   0  0  0  0  0  0  0  0  0  0  0  0
    2.3411    0.9758   -2.2516 H   0  0  0  0  0  0  0  0  0  0  0  0
    3.4484    0.9286    0.5856 H   0  0  0  0  0  0  0  0  0  0  0  0
    4.8468    1.7687   -1.9939 H   0  0  0  0  0  0  0  0  0  0  0  0
    5.4315    2.1497   -0.3565 H   0  0  0  0  0  0  0  0  0  0  0  0
    7.7305   -3.4330    0.4151 H   0  0  0  0  0  0  0  0  0  0  0  0
    8.3237   -2.5110    2.6045 H   0  0  0  0  0  0  0  0  0  0  0  0
    7.5671   -0.2279    3.2272 H   0  0  0  0  0  0  0  0  0  0  0  0
    6.2473    1.0875    1.6792 H   0  0  0  0  0  0  0  0  0  0  0  0
    3.6047    3.4536   -0.2950 H   0  0  0  0  0  0  0  0  0  0  0  0
    2.3048    2.8795   -1.3515 H   0  0  0  0  0  0  0  0  0  0  0  0
    2.3434    3.0828    1.6710 H   0  0  0  0  0  0  0  0  0  0  0  0
    1.1718    3.7602    0.5259 H   0  0  0  0  0  0  0  0  0  0  0  0
    0.0177    1.9482    1.5068 H   0  0  0  0  0  0  0  0  0  0  0  0
    1.4504    0.9029    1.4922 H   0  0  0  0  0  0  0  0  0  0  0  0
  1  2  1  0  0  0  0
  2  3  1  0  0  0  0
  3  4  1  0  0  0  0
  4  5  2  0  0  0  0
  4  6  1  0  0  0  0
  6  7  2  0  0  0  0
  7  8  1  0  0  0  0
  8  9  2  0  0  0  0
  9 10  1  0  0  0  0
 10 11  2  0  0  0  0
  6 11  1  0  0  0  0
  2 12  2  0  0  0  0
 12 13  1  0  0  0  0
 13 14  2  0  0  0  0
  1 14  1  0  0  0  0
 14 15  1  0  0  0  0
 15 16  1  0  0  0  0
 16 17  1  0  0  0  0
 17 18  1  0  0  0  0
 18 19  1  0  0  0  0
 19 20  1  0  0  0  0
 20 21  2  0  0  0  0
 21 22  1  0  0  0  0
 22 23  2  0  0  0  0
 23 24  1  0  0  0  0
 24 25  2  0  0  0  0
 25 26  1  0  0  0  0
 26 27  2  0  0  0  0
 27 28  1  0  0  0  0
 23 28  1  0  0  0  0
 20 28  1  0  0  0  0
 18 29  1  0  0  0  0
 29 30  1  0  0  0  0
 30 31  1  0  0  0  0
 15 31  1  0  0  0  0
  3 32  1  0  0  0  0
  7 33  1  0  0  0  0
  8 34  1  0  0  0  0
  9 35  1  0  0  0  0
 10 36  1  0  0  0  0
 11 37  1  0  0  0  0
 16 38  1  0  0  0  0
 16 39  1  0  0  0  0
 17 40  1  0  0  0  0
 17 41  1  0  0  0  0
 18 42  1  0  0  0  0
 19 43  1  0  0  0  0
 19 44  1  0  0  0  0
 24 45  1  0  0  0  0
 25 46  1  0  0  0  0
 26 47  1  0  0  0  0
 27 48  1  0  0  0  0
 29 49  1  0  0  0  0
 29 50  1  0  0  0  0
 30 51  1  0  0  0  0
 30 52  1  0  0  0  0
 31 53  1  0  0  0  0
 31 54  1  0  0  0  0
M  END
$$$$
