
     RDKit          3D

 31 35  0  0  0  0  0  0  0  0999 V2000
    2.1363   -1.4483    0.7151 S   0  0  0  0  0  0  0  0  0  0  0  0
    3.2808   -0.2173    0.6267 C   0  0  0  0  0  0  0  0  0  0  0  0
    4.6519   -0.4209    0.2610 N   0  0  0  0  0  0  0  0  0  0  0  0
    5.6088    0.6458    0.1297 C   0  0  0  0  0  0  0  0  0  0  0  0
    5.2173    1.8455    0.1363 O   0  0  0  0  0  0  0  0  0  0  0  0
    7.0543    0.3590   -0.0418 C   0  0  0  0  0  0  0  0  0  0  0  0
    7.8920    1.3079   -0.6588 C   0  0  0  0  0  0  0  0  0  0  0  0
    9.2562    1.0488   -0.8245 C   0  0  0  0  0  0  0  0  0  0  0  0
    9.8005   -0.1548   -0.3727 C   0  0  0  0  0  0  0  0  0  0  0  0
    8.9835   -1.0989    0.2522 C   0  0  0  0  0  0  0  0  0  0  0  0
    7.6186   -0.8450    0.4218 C   0  0  0  0  0  0  0  0  0  0  0  0
    2.7510    0.9807    0.9599 N   0  0  0  0  0  0  0  0  0  0  0  0
    1.4581    0.9123    1.2717 N   0  0  0  0  0  0  0  0  0  0  0  0
    0.9532   -0.3404    1.1928 C   0  0  0  0  0  0  0  0  0  0  0  0
   -0.4250   -0.6592    1.4695 N   0  0  0  0  0  0  0  0  0  0  0  0
   -1.3825    0.4056    1.7850 C   0  0  0  0  0  0  0  0  0  0  0  0
   -1.9824    0.9998    0.5061 C   0  0  0  0  0  0  0  0  0  0  0  0
   -2.6577   -0.0598   -0.4097 C   0  0  1  0  0  0  0  0  0  0  0  0
   -3.5110    0.6379   -1.4965 C   0  0  0  0  0  0  0  0  0  0  0  0
   -4.6921    1.3674   -0.9206 C   0  0  0  0  0  0  0  0  0  0  0  0
   -4.8002    2.7148   -0.8832 N   0  0  0  0  0  0  0  0  0  0  0  0
   -5.9699    3.0076   -0.3211 N   0  0  0  0  0  0  0  0  0  0  0  0
   -6.5521    1.8299   -0.0326 C   0  0  0  0  0  0  0  0  0  0  0  0
   -7.7972    1.6371    0.5588 C   0  0  0  0  0  0  0  0  0  0  0  0
   -8.2240    0.3114    0.7494 C   0  0  0  0  0  0  0  0  0  0  0  0
   -7.4077   -0.7655    0.3469 C   0  0  0  0  0  0  0  0  0  0  0  0
   -6.1609   -0.5058   -0.2421 C   0  0  0  0  0  0  0  0  0  0  0  0
   -5.7882    0.7914   -0.3954 N   0  0  0  0  0  0  0  0  0  0  0  0
   -1.5951   -0.9715   -1.0880 C   0  0  0  0  0  0  0  0  0  0  0  0
   -1.2252   -2.2333   -0.2813 C   0  0  0  0  0  0  0  0  0  0  0  0
   -0.9543   -2.0030    1.2143 C   0  0  0  0  0  0  0  0  0  0  0  0
  1  2  1  0
  2  3  1  0
  3  4  1  0
  4  5  2  0
  4  6  1  0
  6  7  2  0
  7  8  1  0
  8  9  2  0
  9 10  1  0
 10 11  2  0
  2 12  2  0
 12 13  1  0
 13 14  2  0
 14 15  1  0
 15 16  1  0
 16 17  1  0
 17 18  1  0
 18 19  1  6
 19 20  1  0
 20 21  2  0
 21 22  1  0
 22 23  2  0
 23 24  1  0
 24 25  2  0
 25 26  1  0
 26 27  2  0
 27 28  1  0
 18 29  1  0
 29 30  1  0
 30 31  1  0
 14  1  1  0
 31 15  1  0
 11  6  1  0
 28 20  1  0
 28 23  1  0
M  END
$$$$

     RDKit          3D

 31 35  0  0  0  0  0  0  0  0999 V2000
    2.2516    0.6658   -0.6533 S   0  0  0  0  0  0  0  0  0  0  0  0
    3.5639    0.3668    0.3572 C   0  0  0  0  0  0  0  0  0  0  0  0
    4.8768    0.0315   -0.1101 N   0  0  0  0  0  0  0  0  0  0  0  0
    5.9653   -0.3209    0.7619 C   0  0  0  0  0  0  0  0  0  0  0  0
    5.7399   -0.5754    1.9767 O   0  0  0  0  0  0  0  0  0  0  0  0
    7.3526   -0.4229    0.2470 C   0  0  0  0  0  0  0  0  0  0  0  0
    7.7571    0.2885   -0.8992 C   0  0  0  0  0  0  0  0  0  0  0  0
    9.0704    0.1854   -1.3691 C   0  0  0  0  0  0  0  0  0  0  0  0
    9.9941   -0.6204   -0.7000 C   0  0  0  0  0  0  0  0  0  0  0  0
    9.6082   -1.3217    0.4442 C   0  0  0  0  0  0  0  0  0  0  0  0
    8.2967   -1.2226    0.9189 C   0  0  0  0  0  0  0  0  0  0  0  0
    3.2294    0.4976    1.6603 N   0  0  0  0  0  0  0  0  0  0  0  0
    1.9507    0.8232    1.8422 N   0  0  0  0  0  0  0  0  0  0  0  0
    1.2606    0.9594    0.6856 C   0  0  0  0  0  0  0  0  0  0  0  0
   -0.1418    1.2955    0.6325 N   0  0  0  0  0  0  0  0  0  0  0  0
   -0.9251    1.3043    1.8788 C   0  0  0  0  0  0  0  0  0  0  0  0
   -2.4019    0.9170    1.6819 C   0  0  0  0  0  0  0  0  0  0  0  0
   -2.5936   -0.3568    0.8146 C   0  0  1  0  0  0  0  0  0  0  0  0
   -3.8369   -1.1608    1.2642 C   0  0  0  0  0  0  0  0  0  0  0  0
   -5.1278   -0.4102    1.0638 C   0  0  0  0  0  0  0  0  0  0  0  0
   -5.5397    0.6039    1.8594 N   0  0  0  0  0  0  0  0  0  0  0  0
   -6.7097    1.0312    1.3933 N   0  0  0  0  0  0  0  0  0  0  0  0
   -6.9876    0.2666    0.3221 C   0  0  0  0  0  0  0  0  0  0  0  0
   -8.1097    0.3570   -0.4974 C   0  0  0  0  0  0  0  0  0  0  0  0
   -8.1954   -0.5374   -1.5776 C   0  0  0  0  0  0  0  0  0  0  0  0
   -7.1730   -1.4812   -1.8046 C   0  0  0  0  0  0  0  0  0  0  0  0
   -6.0662   -1.5233   -0.9428 C   0  0  0  0  0  0  0  0  0  0  0  0
   -6.0287   -0.6402    0.0899 N   0  0  0  0  0  0  0  0  0  0  0  0
   -2.6836   -0.0185   -0.6962 C   0  0  0  0  0  0  0  0  0  0  0  0
   -1.3509    0.4209   -1.3184 C   0  0  0  0  0  0  0  0  0  0  0  0
   -0.7635    1.6638   -0.6459 C   0  0  0  0  0  0  0  0  0  0  0  0
  1  2  1  0
  2  3  1  0
  3  4  1  0
  4  5  2  0
  4  6  1  0
  6  7  2  0
  7  8  1  0
  8  9  2  0
  9 10  1  0
 10 11  2  0
  2 12  2  0
 12 13  1  0
 13 14  2  0
 14 15  1  0
 15 16  1  0
 16 17  1  0
 17 18  1  0
 18 19  1  1
 19 20  1  0
 20 21  2  0
 21 22  1  0
 22 23  2  0
 23 24  1  0
 24 25  2  0
 25 26  1  0
 26 27  2  0
 27 28  1  0
 18 29  1  0
 29 30  1  0
 30 31  1  0
 14  1  1  0
 31 15  1  0
 11  6  1  0
 28 20  1  0
 28 23  1  0
M  END
$$$$

     RDKit          3D

 31 35  0  0  0  0  0  0  0  0999 V2000
    2.3010    0.8329    0.4476 S   0  0  0  0  0  0  0  0  0  0  0  0
    3.2724    0.5532   -0.9047 C   0  0  0  0  0  0  0  0  0  0  0  0
    4.6865    0.3121   -0.8947 N   0  0  0  0  0  0  0  0  0  0  0  0
    5.4542    0.0500    0.2924 C   0  0  0  0  0  0  0  0  0  0  0  0
    4.8724   -0.3236    1.3470 O   0  0  0  0  0  0  0  0  0  0  0  0
    6.9331    0.1712    0.2863 C   0  0  0  0  0  0  0  0  0  0  0  0
    7.6991   -0.4895    1.2646 C   0  0  0  0  0  0  0  0  0  0  0  0
    9.0924   -0.3754    1.2719 C   0  0  0  0  0  0  0  0  0  0  0  0
    9.7368    0.4009    0.3082 C   0  0  0  0  0  0  0  0  0  0  0  0
    8.9882    1.0715   -0.6608 C   0  0  0  0  0  0  0  0  0  0  0  0
    7.5944    0.9624   -0.6717 C   0  0  0  0  0  0  0  0  0  0  0  0
    2.5582    0.6438   -2.0482 N   0  0  0  0  0  0  0  0  0  0  0  0
    1.2691    0.9125   -1.8460 N   0  0  0  0  0  0  0  0  0  0  0  0
    0.9473    1.0479   -0.5391 C   0  0  0  0  0  0  0  0  0  0  0  0
   -0.3860    1.3375   -0.0748 N   0  0  0  0  0  0  0  0  0  0  0  0
   -1.4969    1.4428   -1.0257 C   0  0  0  0  0  0  0  0  0  0  0  0
   -2.1347    0.0730   -1.2811 C   0  0  0  0  0  0  0  0  0  0  0  0
   -2.6083   -0.6394    0.0165 C   0  0  1  0  0  0  0  0  0  0  0  0
   -3.5300   -1.8326   -0.3309 C   0  0  0  0  0  0  0  0  0  0  0  0
   -4.8274   -1.3951   -0.9506 C   0  0  0  0  0  0  0  0  0  0  0  0
   -5.1483   -1.5984   -2.2485 N   0  0  0  0  0  0  0  0  0  0  0  0
   -6.3602   -1.0872   -2.4459 N   0  0  0  0  0  0  0  0  0  0  0  0
   -6.7542   -0.5874   -1.2607 C   0  0  0  0  0  0  0  0  0  0  0  0
   -7.9654    0.0389   -0.9792 C   0  0  0  0  0  0  0  0  0  0  0  0
   -8.1790    0.4705    0.3411 C   0  0  0  0  0  0  0  0  0  0  0  0
   -7.1937    0.2623    1.3281 C   0  0  0  0  0  0  0  0  0  0  0  0
   -5.9929   -0.3766    0.9815 C   0  0  0  0  0  0  0  0  0  0  0  0
   -5.8285   -0.7651   -0.3097 N   0  0  0  0  0  0  0  0  0  0  0  0
   -1.3948   -1.1422    0.8495 C   0  0  0  0  0  0  0  0  0  0  0  0
   -0.8609   -0.1245    1.8774 C   0  0  0  0  0  0  0  0  0  0  0  0
   -0.7074    1.3129    1.3560 C   0  0  0  0  0  0  0  0  0  0  0  0
  1  2  1  0
  2  3  1  0
  3  4  1  0
  4  5  2  0
  4  6  1  0
  6  7  2  0
  7  8  1  0
  8  9  2  0
  9 10  1  0
 10 11  2  0
  2 12  2  0
 12 13  1  0
 13 14  2  0
 14 15  1  0
 15 16  1  0
 16 17  1  0
 17 18  1  0
 18 19  1  6
 19 20  1  0
 20 21  2  0
 21 22  1  0
 22 23  2  0
 23 24  1  0
 24 25  2  0
 25 26  1  0
 26 27  2  0
 27 28  1  0
 18 29  1  0
 29 30  1  0
 30 31  1  0
 14  1  1  0
 31 15  1  0
 11  6  1  0
 28 20  1  0
 28 23  1  0
M  END
$$$$

     RDKit          3D

 31 35  0  0  0  0  0  0  0  0999 V2000
    2.2320    1.3046    0.0381 S   0  0  0  0  0  0  0  0  0  0  0  0
    3.3573    0.0851    0.3187 C   0  0  0  0  0  0  0  0  0  0  0  0
    4.6120   -0.0234   -0.3667 N   0  0  0  0  0  0  0  0  0  0  0  0
    5.5767   -1.0555   -0.0939 C   0  0  0  0  0  0  0  0  0  0  0  0
    5.2273   -2.0920    0.5341 O   0  0  0  0  0  0  0  0  0  0  0  0
    6.9819   -0.9309   -0.5556 C   0  0  0  0  0  0  0  0  0  0  0  0
    7.7868   -2.0787   -0.6857 C   0  0  0  0  0  0  0  0  0  0  0  0
    9.1173   -1.9691   -1.1019 C   0  0  0  0  0  0  0  0  0  0  0  0
    9.6628   -0.7143   -1.3816 C   0  0  0  0  0  0  0  0  0  0  0  0
    8.8783    0.4332   -1.2501 C   0  0  0  0  0  0  0  0  0  0  0  0
    7.5467    0.3300   -0.8354 C   0  0  0  0  0  0  0  0  0  0  0  0
    2.9525   -0.7486    1.3019 N   0  0  0  0  0  0  0  0  0  0  0  0
    1.7650   -0.4222    1.8094 N   0  0  0  0  0  0  0  0  0  0  0  0
    1.2196    0.6781    1.2407 C   0  0  0  0  0  0  0  0  0  0  0  0
   -0.0572    1.2292    1.6317 N   0  0  0  0  0  0  0  0  0  0  0  0
   -0.6043    2.4038    0.9400 C   0  0  0  0  0  0  0  0  0  0  0  0
   -1.3891    1.9543   -0.2997 C   0  0  0  0  0  0  0  0  0  0  0  0
   -2.8709    1.5807   -0.0259 C   0  0  1  0  0  0  0  0  0  0  0  0
   -3.4033    0.7034   -1.1824 C   0  0  0  0  0  0  0  0  0  0  0  0
   -4.9034    0.6151   -1.1797 C   0  0  0  0  0  0  0  0  0  0  0  0
   -5.7169    1.6459   -1.5098 N   0  0  0  0  0  0  0  0  0  0  0  0
   -6.9722    1.2215   -1.3918 N   0  0  0  0  0  0  0  0  0  0  0  0
   -6.8971   -0.0601   -0.9891 C   0  0  0  0  0  0  0  0  0  0  0  0
   -7.9642   -0.9117   -0.7177 C   0  0  0  0  0  0  0  0  0  0  0  0
   -7.6600   -2.2101   -0.2765 C   0  0  0  0  0  0  0  0  0  0  0  0
   -6.3183   -2.6127   -0.1174 C   0  0  0  0  0  0  0  0  0  0  0  0
   -5.2858   -1.7097   -0.4150 C   0  0  0  0  0  0  0  0  0  0  0  0
   -5.6293   -0.4682   -0.8458 N   0  0  0  0  0  0  0  0  0  0  0  0
   -3.1450    0.9327    1.3631 C   0  0  0  0  0  0  0  0  0  0  0  0
   -2.1192   -0.1280    1.8064 C   0  0  0  0  0  0  0  0  0  0  0  0
   -0.9310    0.4939    2.5542 C   0  0  0  0  0  0  0  0  0  0  0  0
  1  2  1  0
  2  3  1  0
  3  4  1  0
  4  5  2  0
  4  6  1  0
  6  7  2  0
  7  8  1  0
  8  9  2  0
  9 10  1  0
 10 11  2  0
  2 12  2  0
 12 13  1  0
 13 14  2  0
 14 15  1  0
 15 16  1  0
 16 17  1  0
 17 18  1  0
 18 19  1  6
 19 20  1  0
 20 21  2  0
 21 22  1  0
 22 23  2  0
 23 24  1  0
 24 25  2  0
 25 26  1  0
 26 27  2  0
 27 28  1  0
 18 29  1  0
 29 30  1  0
 30 31  1  0
 14  1  1  0
 31 15  1  0
 11  6  1  0
 28 20  1  0
 28 23  1  0
M  END
$$$$

     RDKit          3D

 31 35  0  0  0  0  0  0  0  0999 V2000
    2.6863    0.4405   -0.8512 S   0  0  0  0  0  0  0  0  0  0  0  0
    3.3928    0.6691    0.6670 C   0  0  0  0  0  0  0  0  0  0  0  0
    4.7977    0.6282    0.9597 N   0  0  0  0  0  0  0  0  0  0  0  0
    5.8365    0.7593   -0.0246 C   0  0  0  0  0  0  0  0  0  0  0  0
    5.5555    1.1567   -1.1864 O   0  0  0  0  0  0  0  0  0  0  0  0
    7.2521    0.4962    0.3295 C   0  0  0  0  0  0  0  0  0  0  0  0
    7.5855   -0.3802    1.3807 C   0  0  0  0  0  0  0  0  0  0  0  0
    8.9229   -0.5981    1.7206 C   0  0  0  0  0  0  0  0  0  0  0  0
    9.9406    0.0504    1.0162 C   0  0  0  0  0  0  0  0  0  0  0  0
    9.6239    0.9064   -0.0408 C   0  0  0  0  0  0  0  0  0  0  0  0
    8.2878    1.1254   -0.3890 C   0  0  0  0  0  0  0  0  0  0  0  0
    2.4598    0.8910    1.6170 N   0  0  0  0  0  0  0  0  0  0  0  0
    1.2179    0.8981    1.1405 N   0  0  0  0  0  0  0  0  0  0  0  0
    1.1506    0.6764   -0.1934 C   0  0  0  0  0  0  0  0  0  0  0  0
   -0.0903    0.6171   -0.9251 N   0  0  0  0  0  0  0  0  0  0  0  0
   -1.3017    1.1932   -0.3247 C   0  0  0  0  0  0  0  0  0  0  0  0
   -2.1535    0.0989    0.3287 C   0  0  0  0  0  0  0  0  0  0  0  0
   -3.0536   -0.6890   -0.6527 C   0  0  1  0  0  0  0  0  0  0  0  0
   -4.2527    0.1318   -1.1951 C   0  0  0  0  0  0  0  0  0  0  0  0
   -5.1847    0.5646   -0.1005 C   0  0  0  0  0  0  0  0  0  0  0  0
   -5.2889    1.8398    0.3368 N   0  0  0  0  0  0  0  0  0  0  0  0
   -6.1798    1.8530    1.3230 N   0  0  0  0  0  0  0  0  0  0  0  0
   -6.6022    0.5834    1.4638 C   0  0  0  0  0  0  0  0  0  0  0  0
   -7.5414    0.1123    2.3750 C   0  0  0  0  0  0  0  0  0  0  0  0
   -7.8463   -1.2574    2.3367 C   0  0  0  0  0  0  0  0  0  0  0  0
   -7.2146   -2.1044    1.4044 C   0  0  0  0  0  0  0  0  0  0  0  0
   -6.2759   -1.5688    0.5115 C   0  0  0  0  0  0  0  0  0  0  0  0
   -6.0077   -0.2412    0.5928 N   0  0  0  0  0  0  0  0  0  0  0  0
   -2.2575   -1.3811   -1.7846 C   0  0  0  0  0  0  0  0  0  0  0  0
   -1.5103   -0.4290   -2.7403 C   0  0  0  0  0  0  0  0  0  0  0  0
   -0.1068   -0.0540   -2.2368 C   0  0  0  0  0  0  0  0  0  0  0  0
  1  2  1  0
  2  3  1  0
  3  4  1  0
  4  5  2  0
  4  6  1  0
  6  7  2  0
  7  8  1  0
  8  9  2  0
  9 10  1  0
 10 11  2  0
  2 12  2  0
 12 13  1  0
 13 14  2  0
 14 15  1  0
 15 16  1  0
 16 17  1  0
 17 18  1  0
 18 19  1  6
 19 20  1  0
 20 21  2  0
 21 22  1  0
 22 23  2  0
 23 24  1  0
 24 25  2  0
 25 26  1  0
 26 27  2  0
 27 28  1  0
 18 29  1  0
 29 30  1  0
 30 31  1  0
 14  1  1  0
 31 15  1  0
 11  6  1  0
 28 20  1  0
 28 23  1  0
M  END
$$$$

     RDKit          3D

 31 35  0  0  0  0  0  0  0  0999 V2000
    2.5429   -0.4666    0.6066 S   0  0  0  0  0  0  0  0  0  0  0  0
    3.6936   -0.8711   -0.5569 C   0  0  0  0  0  0  0  0  0  0  0  0
    5.0961   -0.5837   -0.4858 N   0  0  0  0  0  0  0  0  0  0  0  0
    5.6579    0.4198    0.3770 C   0  0  0  0  0  0  0  0  0  0  0  0
    4.9319    1.3620    0.7979 O   0  0  0  0  0  0  0  0  0  0  0  0
    7.0930    0.3885    0.7463 C   0  0  0  0  0  0  0  0  0  0  0  0
    7.7323    1.5588    1.1961 C   0  0  0  0  0  0  0  0  0  0  0  0
    9.0826    1.5350    1.5566 C   0  0  0  0  0  0  0  0  0  0  0  0
    9.8071    0.3437    1.4802 C   0  0  0  0  0  0  0  0  0  0  0  0
    9.1826   -0.8268    1.0439 C   0  0  0  0  0  0  0  0  0  0  0  0
    7.8326   -0.8083    0.6796 C   0  0  0  0  0  0  0  0  0  0  0  0
    3.1464   -1.5930   -1.5581 N   0  0  0  0  0  0  0  0  0  0  0  0
    1.8384   -1.7949   -1.4084 N   0  0  0  0  0  0  0  0  0  0  0  0
    1.3336   -1.2464   -0.2792 C   0  0  0  0  0  0  0  0  0  0  0  0
   -0.0633   -1.3196    0.0829 N   0  0  0  0  0  0  0  0  0  0  0  0
   -1.0495   -1.7133   -0.9294 C   0  0  0  0  0  0  0  0  0  0  0  0
   -1.4445   -0.4884   -1.7657 C   0  0  0  0  0  0  0  0  0  0  0  0
   -2.5911    0.3711   -1.1631 C   0  0  1  0  0  0  0  0  0  0  0  0
   -3.9589   -0.1270   -1.6847 C   0  0  0  0  0  0  0  0  0  0  0  0
   -5.0825    0.7918   -1.2876 C   0  0  0  0  0  0  0  0  0  0  0  0
   -5.2057    2.0618   -1.7374 N   0  0  0  0  0  0  0  0  0  0  0  0
   -6.3058    2.5745   -1.1938 N   0  0  0  0  0  0  0  0  0  0  0  0
   -6.8306    1.6044   -0.4233 C   0  0  0  0  0  0  0  0  0  0  0  0
   -7.9876    1.6874    0.3469 C   0  0  0  0  0  0  0  0  0  0  0  0
   -8.3531    0.5520    1.0900 C   0  0  0  0  0  0  0  0  0  0  0  0
   -7.5607   -0.6127    1.0475 C   0  0  0  0  0  0  0  0  0  0  0  0
   -6.4043   -0.6340    0.2519 C   0  0  0  0  0  0  0  0  0  0  0  0
   -6.0963    0.4841   -0.4558 N   0  0  0  0  0  0  0  0  0  0  0  0
   -2.6056    0.4682    0.3901 C   0  0  0  0  0  0  0  0  0  0  0  0
   -1.2244    0.6346    1.0494 C   0  0  0  0  0  0  0  0  0  0  0  0
   -0.5546   -0.7185    1.3271 C   0  0  0  0  0  0  0  0  0  0  0  0
  1  2  1  0
  2  3  1  0
  3  4  1  0
  4  5  2  0
  4  6  1  0
  6  7  2  0
  7  8  1  0
  8  9  2  0
  9 10  1  0
 10 11  2  0
  2 12  2  0
 12 13  1  0
 13 14  2  0
 14 15  1  0
 15 16  1  0
 16 17  1  0
 17 18  1  0
 18 19  1  1
 19 20  1  0
 20 21  2  0
 21 22  1  0
 22 23  2  0
 23 24  1  0
 24 25  2  0
 25 26  1  0
 26 27  2  0
 27 28  1  0
 18 29  1  0
 29 30  1  0
 30 31  1  0
 14  1  1  0
 31 15  1  0
 11  6  1  0
 28 20  1  0
 28 23  1  0
M  END
$$$$

     RDKit          3D

 31 35  0  0  0  0  0  0  0  0999 V2000
    2.3205   -0.0487    0.2153 S   0  0  0  0  0  0  0  0  0  0  0  0
    3.5988    0.6430   -0.6464 C   0  0  0  0  0  0  0  0  0  0  0  0
    4.9732    0.2293   -0.6150 N   0  0  0  0  0  0  0  0  0  0  0  0
    5.5140   -0.7731    0.2665 C   0  0  0  0  0  0  0  0  0  0  0  0
    4.7415   -1.5229    0.9255 O   0  0  0  0  0  0  0  0  0  0  0  0
    6.9807   -0.9515    0.4039 C   0  0  0  0  0  0  0  0  0  0  0  0
    7.5036   -2.1948    0.8114 C   0  0  0  0  0  0  0  0  0  0  0  0
    8.8838   -2.3740    0.9450 C   0  0  0  0  0  0  0  0  0  0  0  0
    9.7569   -1.3144    0.6889 C   0  0  0  0  0  0  0  0  0  0  0  0
    9.2500   -0.0708    0.3019 C   0  0  0  0  0  0  0  0  0  0  0  0
    7.8705    0.1136    0.1611 C   0  0  0  0  0  0  0  0  0  0  0  0
    3.1751    1.6859   -1.3938 N   0  0  0  0  0  0  0  0  0  0  0  0
    1.8682    1.9198   -1.2867 N   0  0  0  0  0  0  0  0  0  0  0  0
    1.2383    1.0654   -0.4485 C   0  0  0  0  0  0  0  0  0  0  0  0
   -0.1781    1.1045   -0.1874 N   0  0  0  0  0  0  0  0  0  0  0  0
   -0.8332   -0.0993    0.3613 C   0  0  0  0  0  0  0  0  0  0  0  0
   -2.3643   -0.1056    0.1920 C   0  0  0  0  0  0  0  0  0  0  0  0
   -2.8445   -0.1701   -1.2855 C   0  0  1  0  0  0  0  0  0  0  0  0
   -4.3241    0.2599   -1.4053 C   0  0  0  0  0  0  0  0  0  0  0  0
   -5.2296   -0.6716   -0.6478 C   0  0  0  0  0  0  0  0  0  0  0  0
   -5.4707   -1.9501   -1.0221 N   0  0  0  0  0  0  0  0  0  0  0  0
   -6.2929   -2.4834   -0.1232 N   0  0  0  0  0  0  0  0  0  0  0  0
   -6.5349   -1.5180    0.7820 C   0  0  0  0  0  0  0  0  0  0  0  0
   -7.3307   -1.6235    1.9205 C   0  0  0  0  0  0  0  0  0  0  0  0
   -7.4304   -0.4924    2.7486 C   0  0  0  0  0  0  0  0  0  0  0  0
   -6.7406    0.6928    2.4221 C   0  0  0  0  0  0  0  0  0  0  0  0
   -5.9508    0.7375    1.2615 C   0  0  0  0  0  0  0  0  0  0  0  0
   -5.8915   -0.3795    0.4878 N   0  0  0  0  0  0  0  0  0  0  0  0
   -1.9599    0.6105   -2.2914 C   0  0  0  0  0  0  0  0  0  0  0  0
   -1.6832    2.0816   -1.9278 C   0  0  0  0  0  0  0  0  0  0  0  0
   -0.9546    2.2906   -0.5868 C   0  0  0  0  0  0  0  0  0  0  0  0
  1  2  1  0
  2  3  1  0
  3  4  1  0
  4  5  2  0
  4  6  1  0
  6  7  2  0
  7  8  1  0
  8  9  2  0
  9 10  1  0
 10 11  2  0
  2 12  2  0
 12 13  1  0
 13 14  2  0
 14 15  1  0
 15 16  1  0
 16 17  1  0
 17 18  1  0
 18 19  1  1
 19 20  1  0
 20 21  2  0
 21 22  1  0
 22 23  2  0
 23 24  1  0
 24 25  2  0
 25 26  1  0
 26 27  2  0
 27 28  1  0
 18 29  1  0
 29 30  1  0
 30 31  1  0
 14  1  1  0
 31 15  1  0
 11  6  1  0
 28 20  1  0
 28 23  1  0
M  END
$$$$

     RDKit          3D

 31 35  0  0  0  0  0  0  0  0999 V2000
    2.4403   -0.1836   -0.9499 S   0  0  0  0  0  0  0  0  0  0  0  0
    3.6533   -1.2261   -0.4097 C   0  0  0  0  0  0  0  0  0  0  0  0
    5.0405   -0.9014   -0.2231 N   0  0  0  0  0  0  0  0  0  0  0  0
    5.6197    0.3999   -0.4413 C   0  0  0  0  0  0  0  0  0  0  0  0
    4.9329    1.3201   -0.9586 O   0  0  0  0  0  0  0  0  0  0  0  0
    7.0334    0.6779   -0.0849 C   0  0  0  0  0  0  0  0  0  0  0  0
    7.7005   -0.0647    0.9113 C   0  0  0  0  0  0  0  0  0  0  0  0
    9.0312    0.2204    1.2379 C   0  0  0  0  0  0  0  0  0  0  0  0
    9.7064    1.2551    0.5869 C   0  0  0  0  0  0  0  0  0  0  0  0
    9.0530    2.0072   -0.3914 C   0  0  0  0  0  0  0  0  0  0  0  0
    7.7234    1.7244   -0.7253 C   0  0  0  0  0  0  0  0  0  0  0  0
    3.1582   -2.4574   -0.1572 N   0  0  0  0  0  0  0  0  0  0  0  0
    1.8513   -2.5622   -0.3927 N   0  0  0  0  0  0  0  0  0  0  0  0
    1.2902   -1.4156   -0.8378 C   0  0  0  0  0  0  0  0  0  0  0  0
   -0.1083   -1.2835   -1.1705 N   0  0  0  0  0  0  0  0  0  0  0  0
   -0.6122    0.0393   -1.5958 C   0  0  0  0  0  0  0  0  0  0  0  0
   -2.1383    0.0974   -1.7885 C   0  0  0  0  0  0  0  0  0  0  0  0
   -2.9697   -0.0704   -0.4869 C   0  0  1  0  0  0  0  0  0  0  0  0
   -4.3804   -0.6018   -0.8288 C   0  0  0  0  0  0  0  0  0  0  0  0
   -5.3360   -0.4690    0.3222 C   0  0  0  0  0  0  0  0  0  0  0  0
   -5.7965   -1.5146    1.0473 N   0  0  0  0  0  0  0  0  0  0  0  0
   -6.6332   -1.0305    1.9619 N   0  0  0  0  0  0  0  0  0  0  0  0
   -6.6670    0.3010    1.7711 C   0  0  0  0  0  0  0  0  0  0  0  0
   -7.4237    1.2277    2.4843 C   0  0  0  0  0  0  0  0  0  0  0  0
   -7.3275    2.5755    2.0954 C   0  0  0  0  0  0  0  0  0  0  0  0
   -6.4940    2.9513    1.0205 C   0  0  0  0  0  0  0  0  0  0  0  0
   -5.7572    1.9689    0.3398 C   0  0  0  0  0  0  0  0  0  0  0  0
   -5.8755    0.6821    0.7596 N   0  0  0  0  0  0  0  0  0  0  0  0
   -2.2797   -0.9024    0.6290 C   0  0  0  0  0  0  0  0  0  0  0  0
   -1.8711   -2.3354    0.2431 C   0  0  0  0  0  0  0  0  0  0  0  0
   -1.0070   -2.4419   -1.0211 C   0  0  0  0  0  0  0  0  0  0  0  0
  1  2  1  0
  2  3  1  0
  3  4  1  0
  4  5  2  0
  4  6  1  0
  6  7  2  0
  7  8  1  0
  8  9  2  0
  9 10  1  0
 10 11  2  0
  2 12  2  0
 12 13  1  0
 13 14  2  0
 14 15  1  0
 15 16  1  0
 16 17  1  0
 17 18  1  0
 18 19  1  6
 19 20  1  0
 20 21  2  0
 21 22  1  0
 22 23  2  0
 23 24  1  0
 24 25  2  0
 25 26  1  0
 26 27  2  0
 27 28  1  0
 18 29  1  0
 29 30  1  0
 30 31  1  0
 14  1  1  0
 31 15  1  0
 11  6  1  0
 28 20  1  0
 28 23  1  0
M  END
$$$$

     RDKit          3D

 31 35  0  0  0  0  0  0  0  0999 V2000
    2.4568   -2.7759   -0.7622 S   0  0  0  0  0  0  0  0  0  0  0  0
    3.6590   -1.7368   -0.2091 C   0  0  0  0  0  0  0  0  0  0  0  0
    5.0292   -1.7979   -0.6225 N   0  0  0  0  0  0  0  0  0  0  0  0
    6.0133   -0.8294   -0.2323 C   0  0  0  0  0  0  0  0  0  0  0  0
    7.1799   -1.2235    0.0372 O   0  0  0  0  0  0  0  0  0  0  0  0
    5.7068    0.6194   -0.1801 C   0  0  0  0  0  0  0  0  0  0  0  0
    4.7439    1.1824   -1.0379 C   0  0  0  0  0  0  0  0  0  0  0  0
    4.4696    2.5527   -0.9902 C   0  0  0  0  0  0  0  0  0  0  0  0
    5.1598    3.3748   -0.0961 C   0  0  0  0  0  0  0  0  0  0  0  0
    6.1292    2.8288    0.7488 C   0  0  0  0  0  0  0  0  0  0  0  0
    6.4069    1.4587    0.7051 C   0  0  0  0  0  0  0  0  0  0  0  0
    3.1829   -0.8634    0.7059 N   0  0  0  0  0  0  0  0  0  0  0  0
    1.8821   -1.0157    0.9459 N   0  0  0  0  0  0  0  0  0  0  0  0
    1.3185   -2.0191    0.2339 C   0  0  0  0  0  0  0  0  0  0  0  0
   -0.0845   -2.3445    0.3025 N   0  0  0  0  0  0  0  0  0  0  0  0
   -0.9964   -1.3882    0.9596 C   0  0  0  0  0  0  0  0  0  0  0  0
   -2.4689   -1.5425    0.5301 C   0  0  0  0  0  0  0  0  0  0  0  0
   -2.7358   -1.2584   -0.9758 C   0  0  1  0  0  0  0  0  0  0  0  0
   -2.8992    0.2539   -1.2531 C   0  0  0  0  0  0  0  0  0  0  0  0
   -4.1268    0.8187   -0.5925 C   0  0  0  0  0  0  0  0  0  0  0  0
   -5.3896    0.5053   -0.9649 N   0  0  0  0  0  0  0  0  0  0  0  0
   -6.2201    1.1759   -0.1716 N   0  0  0  0  0  0  0  0  0  0  0  0
   -5.4444    1.8839    0.6696 C   0  0  0  0  0  0  0  0  0  0  0  0
   -5.8760    2.7284    1.6886 C   0  0  0  0  0  0  0  0  0  0  0  0
   -4.8899    3.3636    2.4634 C   0  0  0  0  0  0  0  0  0  0  0  0
   -3.5227    3.1378    2.2027 C   0  0  0  0  0  0  0  0  0  0  0  0
   -3.1503    2.2741    1.1614 C   0  0  0  0  0  0  0  0  0  0  0  0
   -4.1393    1.6873    0.4362 N   0  0  0  0  0  0  0  0  0  0  0  0
   -1.6597   -1.8375   -1.9279 C   0  0  0  0  0  0  0  0  0  0  0  0
   -1.3036   -3.3113   -1.6635 C   0  0  0  0  0  0  0  0  0  0  0  0
   -0.5969   -3.5788   -0.3174 C   0  0  0  0  0  0  0  0  0  0  0  0
  1  2  1  0
  2  3  1  0
  3  4  1  0
  4  5  2  0
  4  6  1  0
  6  7  2  0
  7  8  1  0
  8  9  2  0
  9 10  1  0
 10 11  2  0
  2 12  2  0
 12 13  1  0
 13 14  2  0
 14 15  1  0
 15 16  1  0
 16 17  1  0
 17 18  1  0
 18 19  1  1
 19 20  1  0
 20 21  2  0
 21 22  1  0
 22 23  2  0
 23 24  1  0
 24 25  2  0
 25 26  1  0
 26 27  2  0
 27 28  1  0
 18 29  1  0
 29 30  1  0
 30 31  1  0
 14  1  1  0
 31 15  1  0
 11  6  1  0
 28 20  1  0
 28 23  1  0
M  END
$$$$
