


 32 36  0  0  0  0  0  0  0  0999 V2000
   -5.6375   -9.9278   55.3455 N   0  0  0  0  0  0  0  0  0  0  0  0
   -5.7179   -8.7453   54.4823 C   0  0  0  0  0  0  0  0  0  0  0  0
   -6.0976   -7.5006   55.2918 C   0  0  0  0  0  0  0  0  0  0  0  0
   -5.1353   -7.2193   56.4801 C   0  0  0  0  0  0  0  0  0  0  0  0
   -5.3268   -8.2663   57.6149 C   0  0  0  0  0  0  0  0  0  0  0  0
   -4.4383   -9.5207   57.4855 C   0  0  0  0  0  0  0  0  0  0  0  0
   -4.3910  -10.1528   56.0850 C   0  0  0  0  0  0  0  0  0  0  0  0
   -8.3649  -10.3872   55.0258 S   0  0  0  0  0  0  0  0  0  0  0  0
   -8.9769  -11.7294   55.8363 C   0  0  0  0  0  0  0  0  0  0  0  0
   -8.0151  -12.3695   56.5377 N   0  0  0  0  0  0  0  0  0  0  0  0
   -6.8167  -11.8002   56.4217 N   0  0  0  0  0  0  0  0  0  0  0  0
   -6.8192  -10.7021   55.6315 C   0  0  0  0  0  0  0  0  0  0  0  0
  -10.3528  -12.1304   55.8000 N   0  0  0  0  0  0  0  0  0  0  0  0
  -11.3590  -11.6082   56.6863 C   0  0  0  0  0  0  0  0  0  0  0  0
  -11.0190  -10.9111   57.6818 O   0  0  0  0  0  0  0  0  0  0  0  0
  -10.6244  -12.8003   55.1317 H   0  0  0  0  0  0  0  0  0  0  0  0
  -12.7971  -11.8984   56.4656 C   0  0  0  0  0  0  0  0  0  0  0  0
  -13.7710  -10.9489   56.8298 C   0  0  0  0  0  0  0  0  0  0  0  0
  -15.1293  -11.2112   56.6251 C   0  0  0  0  0  0  0  0  0  0  0  0
  -15.5306  -12.4188   56.0509 C   0  0  0  0  0  0  0  0  0  0  0  0
  -14.5746  -13.3637   55.6735 C   0  0  0  0  0  0  0  0  0  0  0  0
  -13.2146  -13.1065   55.8747 C   0  0  0  0  0  0  0  0  0  0  0  0
   -5.3787   -5.7973   57.0410 C   0  0  0  0  0  0  0  0  0  0  0  0
   -4.1830   -4.9016   56.8775 C   0  0  0  0  0  0  0  0  0  0  0  0
   -3.5669   -4.6760   55.6951 N   0  0  0  0  0  0  0  0  0  0  0  0
   -2.5641   -3.8314   55.9204 N   0  0  0  0  0  0  0  0  0  0  0  0
   -2.5945   -3.5564   57.2367 C   0  0  0  0  0  0  0  0  0  0  0  0
   -1.7375   -2.7084   57.9321 C   0  0  0  0  0  0  0  0  0  0  0  0
   -1.9651   -2.5474   59.3099 C   0  0  0  0  0  0  0  0  0  0  0  0
   -3.0276   -3.2259   59.9414 C   0  0  0  0  0  0  0  0  0  0  0  0
   -3.8560   -4.0693   59.1855 C   0  0  0  0  0  0  0  0  0  0  0  0
   -3.5896   -4.2005   57.8600 N   0  0  0  0  0  0  0  0  0  0  0  0
  8  9  1  0  0  0
  9 13  1  0  0  0
 13 14  1  0  0  0
 14 15  2  0  0  0
 14 17  1  0  0  0
 17 18  2  0  0  0
 18 19  1  0  0  0
 19 20  2  0  0  0
 20 21  1  0  0  0
 21 22  2  0  0  0
  9 10  2  0  0  0
 10 11  1  0  0  0
 11 12  2  0  0  0
 12  1  1  0  0  0
  1  2  1  0  0  0
  2  3  1  0  0  0
  3  4  1  0  0  0
  4 23  1  0  0  0
 23 24  1  0  0  0
 24 25  2  0  0  0
 25 26  1  0  0  0
 26 27  2  0  0  0
 27 28  1  0  0  0
 28 29  2  0  0  0
 29 30  1  0  0  0
 30 31  2  0  0  0
 31 32  1  0  0  0
  4  5  1  0  0  0
  5  6  1  0  0  0
  6  7  1  0  0  0
 12  8  1  0  0  0
  7  1  1  0  0  0
 22 17  1  0  0  0
 32 24  1  0  0  0
 32 27  1  0  0  0
 13 16  1  0  0  0
M  END
> <minimizedAffinity>
-9.56288

> <CNNaffinity>
-1.0000000000

$$$$



 32 36  0  0  0  0  0  0  0  0999 V2000
   -4.1806   -7.9681   56.1062 N   0  0  0  0  0  0  0  0  0  0  0  0
   -4.4067   -8.8693   57.2406 C   0  0  0  0  0  0  0  0  0  0  0  0
   -5.8940   -9.2103   57.3817 C   0  0  0  0  0  0  0  0  0  0  0  0
   -6.5125   -9.8223   56.0931 C   0  0  0  0  0  0  0  0  0  0  0  0
   -6.6551   -8.7482   54.9766 C   0  0  0  0  0  0  0  0  0  0  0  0
   -5.4259   -8.6167   54.0539 C   0  0  0  0  0  0  0  0  0  0  0  0
   -4.0670   -8.5633   54.7705 C   0  0  0  0  0  0  0  0  0  0  0  0
   -4.0341   -5.7009   57.7156 S   0  0  0  0  0  0  0  0  0  0  0  0
   -4.3678   -4.2406   56.9480 C   0  0  0  0  0  0  0  0  0  0  0  0
   -4.6730   -4.4213   55.6438 N   0  0  0  0  0  0  0  0  0  0  0  0
   -4.6334   -5.6988   55.2696 N   0  0  0  0  0  0  0  0  0  0  0  0
   -4.3012   -6.5417   56.2744 C   0  0  0  0  0  0  0  0  0  0  0  0
   -4.3481   -2.9661   57.6042 N   0  0  0  0  0  0  0  0  0  0  0  0
   -3.1846   -2.1222   57.6718 C   0  0  0  0  0  0  0  0  0  0  0  0
   -2.0595   -2.5737   57.3212 O   0  0  0  0  0  0  0  0  0  0  0  0
   -5.1767   -2.6508   58.0323 H   0  0  0  0  0  0  0  0  0  0  0  0
   -3.2786   -0.7297   58.1753 C   0  0  0  0  0  0  0  0  0  0  0  0
   -3.2805    0.3480   57.2690 C   0  0  0  0  0  0  0  0  0  0  0  0
   -3.3701    1.6644   57.7322 C   0  0  0  0  0  0  0  0  0  0  0  0
   -3.4642    1.9203   59.1013 C   0  0  0  0  0  0  0  0  0  0  0  0
   -3.4762    0.8604   60.0100 C   0  0  0  0  0  0  0  0  0  0  0  0
   -3.3881   -0.4585   59.5527 C   0  0  0  0  0  0  0  0  0  0  0  0
   -7.9001  -10.4338   56.4037 C   0  0  0  0  0  0  0  0  0  0  0  0
   -8.0287  -11.8483   55.9123 C   0  0  0  0  0  0  0  0  0  0  0  0
   -7.0252  -12.5341   55.3198 N   0  0  0  0  0  0  0  0  0  0  0  0
   -7.4863  -13.7475   55.0283 N   0  0  0  0  0  0  0  0  0  0  0  0
   -8.7615  -13.7761   55.4552 C   0  0  0  0  0  0  0  0  0  0  0  0
   -9.6458  -14.8477   55.3717 C   0  0  0  0  0  0  0  0  0  0  0  0
  -10.9337  -14.6661   55.9050 C   0  0  0  0  0  0  0  0  0  0  0  0
  -11.2931  -13.4390   56.4992 C   0  0  0  0  0  0  0  0  0  0  0  0
  -10.3568  -12.3951   56.5508 C   0  0  0  0  0  0  0  0  0  0  0  0
   -9.1291  -12.6152   56.0128 N   0  0  0  0  0  0  0  0  0  0  0  0
  8  9  1  0  0  0
  9 13  1  0  0  0
 13 14  1  0  0  0
 14 15  2  0  0  0
 14 17  1  0  0  0
 17 18  2  0  0  0
 18 19  1  0  0  0
 19 20  2  0  0  0
 20 21  1  0  0  0
 21 22  2  0  0  0
  9 10  2  0  0  0
 10 11  1  0  0  0
 11 12  2  0  0  0
 12  1  1  0  0  0
  1  2  1  0  0  0
  2  3  1  0  0  0
  3  4  1  0  0  0
  4 23  1  0  0  0
 23 24  1  0  0  0
 24 25  2  0  0  0
 25 26  1  0  0  0
 26 27  2  0  0  0
 27 28  1  0  0  0
 28 29  2  0  0  0
 29 30  1  0  0  0
 30 31  2  0  0  0
 31 32  1  0  0  0
  4  5  1  0  0  0
  5  6  1  0  0  0
  6  7  1  0  0  0
 12  8  1  0  0  0
  7  1  1  0  0  0
 22 17  1  0  0  0
 32 24  1  0  0  0
 32 27  1  0  0  0
 13 16  1  0  0  0
M  END
> <minimizedAffinity>
-9.42610

> <CNNaffinity>
-1.0000000000

$$$$



 32 36  0  0  0  0  0  0  0  0999 V2000
    7.6424  -10.6524   34.4288 N   0  0  0  0  0  0  0  0  0  0  0  0
    6.7445  -10.2359   35.5107 C   0  0  0  0  0  0  0  0  0  0  0  0
    6.7901   -8.7167   35.7065 C   0  0  0  0  0  0  0  0  0  0  0  0
    6.4620   -7.9171   34.4140 C   0  0  0  0  0  0  0  0  0  0  0  0
    7.6204   -8.0239   33.3810 C   0  0  0  0  0  0  0  0  0  0  0  0
    7.5011   -9.2133   32.4058 C   0  0  0  0  0  0  0  0  0  0  0  0
    7.1447  -10.5618   33.0522 C   0  0  0  0  0  0  0  0  0  0  0  0
    9.7478  -12.4462   34.7478 S   0  0  0  0  0  0  0  0  0  0  0  0
   11.2483  -11.7569   35.0741 C   0  0  0  0  0  0  0  0  0  0  0  0
   11.1735  -10.4090   35.1417 N   0  0  0  0  0  0  0  0  0  0  0  0
    9.9443   -9.9422   34.9304 N   0  0  0  0  0  0  0  0  0  0  0  0
    9.0338  -10.9155   34.6982 C   0  0  0  0  0  0  0  0  0  0  0  0
   12.4514  -12.5105   35.2737 N   0  0  0  0  0  0  0  0  0  0  0  0
   13.6256  -12.3696   34.4538 C   0  0  0  0  0  0  0  0  0  0  0  0
   13.5673  -11.7070   33.3814 O   0  0  0  0  0  0  0  0  0  0  0  0
   12.4756  -13.1604   36.0128 H   0  0  0  0  0  0  0  0  0  0  0  0
   14.9055  -13.0161   34.8345 C   0  0  0  0  0  0  0  0  0  0  0  0
   16.1196  -12.5416   34.3019 C   0  0  0  0  0  0  0  0  0  0  0  0
   17.3322  -13.1424   34.6547 C   0  0  0  0  0  0  0  0  0  0  0  0
   17.3482  -14.2174   35.5453 C   0  0  0  0  0  0  0  0  0  0  0  0
   16.1528  -14.6895   36.0906 C   0  0  0  0  0  0  0  0  0  0  0  0
   14.9371  -14.0920   35.7424 C   0  0  0  0  0  0  0  0  0  0  0  0
    6.2081   -6.4288   34.7553 C   0  0  0  0  0  0  0  0  0  0  0  0
    5.3891   -5.7295   33.7069 C   0  0  0  0  0  0  0  0  0  0  0  0
    4.0841   -5.9932   33.4705 N   0  0  0  0  0  0  0  0  0  0  0  0
    3.6830   -5.1864   32.4917 N   0  0  0  0  0  0  0  0  0  0  0  0
    4.7531   -4.4438   32.1562 C   0  0  0  0  0  0  0  0  0  0  0  0
    4.8081   -3.4517   31.1816 C   0  0  0  0  0  0  0  0  0  0  0  0
    6.0313   -2.7805   31.0107 C   0  0  0  0  0  0  0  0  0  0  0  0
    7.1451   -3.1136   31.8085 C   0  0  0  0  0  0  0  0  0  0  0  0
    7.0269   -4.1254   32.7734 C   0  0  0  0  0  0  0  0  0  0  0  0
    5.8277   -4.7520   32.8937 N   0  0  0  0  0  0  0  0  0  0  0  0
  8  9  1  0  0  0
  9 13  1  0  0  0
 13 14  1  0  0  0
 14 15  2  0  0  0
 14 17  1  0  0  0
 17 18  2  0  0  0
 18 19  1  0  0  0
 19 20  2  0  0  0
 20 21  1  0  0  0
 21 22  2  0  0  0
  9 10  2  0  0  0
 10 11  1  0  0  0
 11 12  2  0  0  0
 12  1  1  0  0  0
  1  2  1  0  0  0
  2  3  1  0  0  0
  3  4  1  0  0  0
  4 23  1  0  0  0
 23 24  1  0  0  0
 24 25  2  0  0  0
 25 26  1  0  0  0
 26 27  2  0  0  0
 27 28  1  0  0  0
 28 29  2  0  0  0
 29 30  1  0  0  0
 30 31  2  0  0  0
 31 32  1  0  0  0
  4  5  1  0  0  0
  5  6  1  0  0  0
  6  7  1  0  0  0
 12  8  1  0  0  0
  7  1  1  0  0  0
 22 17  1  0  0  0
 32 24  1  0  0  0
 32 27  1  0  0  0
 13 16  1  0  0  0
M  END
> <minimizedAffinity>
-9.14046

> <CNNaffinity>
-1.0000000000

$$$$



 32 36  0  0  0  0  0  0  0  0999 V2000
   -7.6953   -8.5082   55.3663 N   0  0  0  0  0  0  0  0  0  0  0  0
   -7.7392   -9.9725   55.4284 C   0  0  0  0  0  0  0  0  0  0  0  0
   -8.6061  -10.4457   56.6002 C   0  0  0  0  0  0  0  0  0  0  0  0
  -10.0530   -9.8775   56.5671 C   0  0  0  0  0  0  0  0  0  0  0  0
  -10.0654   -8.3589   56.9050 C   0  0  0  0  0  0  0  0  0  0  0  0
   -9.9133   -7.4297   55.6831 C   0  0  0  0  0  0  0  0  0  0  0  0
   -8.8013   -7.8174   54.6950 C   0  0  0  0  0  0  0  0  0  0  0  0
   -6.7651   -6.1132   56.4391 S   0  0  0  0  0  0  0  0  0  0  0  0
   -5.3590   -6.2245   57.3576 C   0  0  0  0  0  0  0  0  0  0  0  0
   -4.8971   -7.4936   57.4101 N   0  0  0  0  0  0  0  0  0  0  0  0
   -5.6564   -8.3549   56.7354 N   0  0  0  0  0  0  0  0  0  0  0  0
   -6.7237   -7.7756   56.1390 C   0  0  0  0  0  0  0  0  0  0  0  0
   -4.7224   -5.1061   57.9893 N   0  0  0  0  0  0  0  0  0  0  0  0
   -4.2426   -3.9533   57.2740 C   0  0  0  0  0  0  0  0  0  0  0  0
   -4.1835   -3.9756   56.0136 O   0  0  0  0  0  0  0  0  0  0  0  0
   -4.6070   -5.1280   58.9668 H   0  0  0  0  0  0  0  0  0  0  0  0
   -3.7874   -2.7403   57.9968 C   0  0  0  0  0  0  0  0  0  0  0  0
   -4.0294   -1.4642   57.4528 C   0  0  0  0  0  0  0  0  0  0  0  0
   -3.6060   -0.3139   58.1260 C   0  0  0  0  0  0  0  0  0  0  0  0
   -2.9427   -0.4227   59.3496 C   0  0  0  0  0  0  0  0  0  0  0  0
   -2.7076   -1.6813   59.9063 C   0  0  0  0  0  0  0  0  0  0  0  0
   -3.1297   -2.8353   59.2383 C   0  0  0  0  0  0  0  0  0  0  0  0
  -10.9502  -10.6391   57.5725 C   0  0  0  0  0  0  0  0  0  0  0  0
  -11.7442  -11.7355   56.9196 C   0  0  0  0  0  0  0  0  0  0  0  0
  -11.2143  -12.9134   56.5193 N   0  0  0  0  0  0  0  0  0  0  0  0
  -12.1999  -13.6403   55.9997 N   0  0  0  0  0  0  0  0  0  0  0  0
  -13.3117  -12.8899   56.0998 C   0  0  0  0  0  0  0  0  0  0  0  0
  -14.5955  -13.2418   55.6932 C   0  0  0  0  0  0  0  0  0  0  0  0
  -15.6225  -12.3079   55.9148 C   0  0  0  0  0  0  0  0  0  0  0  0
  -15.3408  -11.0704   56.5292 C   0  0  0  0  0  0  0  0  0  0  0  0
  -14.0248  -10.7734   56.9147 C   0  0  0  0  0  0  0  0  0  0  0  0
  -13.0654  -11.7034   56.6700 N   0  0  0  0  0  0  0  0  0  0  0  0
  8  9  1  0  0  0
  9 13  1  0  0  0
 13 14  1  0  0  0
 14 15  2  0  0  0
 14 17  1  0  0  0
 17 18  2  0  0  0
 18 19  1  0  0  0
 19 20  2  0  0  0
 20 21  1  0  0  0
 21 22  2  0  0  0
  9 10  2  0  0  0
 10 11  1  0  0  0
 11 12  2  0  0  0
 12  1  1  0  0  0
  1  2  1  0  0  0
  2  3  1  0  0  0
  3  4  1  0  0  0
  4 23  1  0  0  0
 23 24  1  0  0  0
 24 25  2  0  0  0
 25 26  1  0  0  0
 26 27  2  0  0  0
 27 28  1  0  0  0
 28 29  2  0  0  0
 29 30  1  0  0  0
 30 31  2  0  0  0
 31 32  1  0  0  0
  4  5  1  0  0  0
  5  6  1  0  0  0
  6  7  1  0  0  0
 12  8  1  0  0  0
  7  1  1  0  0  0
 22 17  1  0  0  0
 32 24  1  0  0  0
 32 27  1  0  0  0
 13 16  1  0  0  0
M  END
> <minimizedAffinity>
-9.02268

> <CNNaffinity>
-1.0000000000

$$$$



 32 36  0  0  0  0  0  0  0  0999 V2000
    7.9060  -11.2778   35.9342 N   0  0  0  0  0  0  0  0  0  0  0  0
    7.9446   -9.9448   36.5438 C   0  0  0  0  0  0  0  0  0  0  0  0
    8.3589   -8.8846   35.5177 C   0  0  0  0  0  0  0  0  0  0  0  0
    7.4516   -8.8591   34.2553 C   0  0  0  0  0  0  0  0  0  0  0  0
    7.6969  -10.1109   33.3647 C   0  0  0  0  0  0  0  0  0  0  0  0
    6.8056  -11.3233   33.7047 C   0  0  0  0  0  0  0  0  0  0  0  0
    6.6952  -11.6608   35.2004 C   0  0  0  0  0  0  0  0  0  0  0  0
   10.6662  -11.5359   36.1923 S   0  0  0  0  0  0  0  0  0  0  0  0
   11.2856  -13.0707   35.8864 C   0  0  0  0  0  0  0  0  0  0  0  0
   10.3110  -13.9423   35.5435 N   0  0  0  0  0  0  0  0  0  0  0  0
    9.0980  -13.3928   35.5332 N   0  0  0  0  0  0  0  0  0  0  0  0
    9.1009  -12.0808   35.8632 C   0  0  0  0  0  0  0  0  0  0  0  0
   12.6777  -13.4043   35.9627 N   0  0  0  0  0  0  0  0  0  0  0  0
   13.5566  -13.4230   34.8235 C   0  0  0  0  0  0  0  0  0  0  0  0
   13.0777  -13.3397   33.6589 O   0  0  0  0  0  0  0  0  0  0  0  0
   13.0533  -13.6333   36.8435 H   0  0  0  0  0  0  0  0  0  0  0  0
   15.0236  -13.5668   34.9922 C   0  0  0  0  0  0  0  0  0  0  0  0
   15.5387  -14.5146   35.8974 C   0  0  0  0  0  0  0  0  0  0  0  0
   16.9196  -14.6597   36.0636 C   0  0  0  0  0  0  0  0  0  0  0  0
   17.8009  -13.8667   35.3264 C   0  0  0  0  0  0  0  0  0  0  0  0
   17.3037  -12.9320   34.4162 C   0  0  0  0  0  0  0  0  0  0  0  0
   15.9236  -12.7831   34.2448 C   0  0  0  0  0  0  0  0  0  0  0  0
    7.7180   -7.5766   33.4305 C   0  0  0  0  0  0  0  0  0  0  0  0
    6.8319   -6.4340   33.8406 C   0  0  0  0  0  0  0  0  0  0  0  0
    6.4594   -6.1904   35.1175 N   0  0  0  0  0  0  0  0  0  0  0  0
    5.6924   -5.1034   35.1108 N   0  0  0  0  0  0  0  0  0  0  0  0
    5.6186   -4.7049   33.8282 C   0  0  0  0  0  0  0  0  0  0  0  0
    4.9294   -3.6005   33.3357 C   0  0  0  0  0  0  0  0  0  0  0  0
    5.0059   -3.3544   31.9539 C   0  0  0  0  0  0  0  0  0  0  0  0
    5.7596   -4.2044   31.1186 C   0  0  0  0  0  0  0  0  0  0  0  0
    6.4307   -5.3037   31.6754 C   0  0  0  0  0  0  0  0  0  0  0  0
    6.3179   -5.5059   33.0139 N   0  0  0  0  0  0  0  0  0  0  0  0
  8  9  1  0  0  0
  9 13  1  0  0  0
 13 14  1  0  0  0
 14 15  2  0  0  0
 14 17  1  0  0  0
 17 18  2  0  0  0
 18 19  1  0  0  0
 19 20  2  0  0  0
 20 21  1  0  0  0
 21 22  2  0  0  0
  9 10  2  0  0  0
 10 11  1  0  0  0
 11 12  2  0  0  0
 12  1  1  0  0  0
  1  2  1  0  0  0
  2  3  1  0  0  0
  3  4  1  0  0  0
  4 23  1  0  0  0
 23 24  1  0  0  0
 24 25  2  0  0  0
 25 26  1  0  0  0
 26 27  2  0  0  0
 27 28  1  0  0  0
 28 29  2  0  0  0
 29 30  1  0  0  0
 30 31  2  0  0  0
 31 32  1  0  0  0
  4  5  1  0  0  0
  5  6  1  0  0  0
  6  7  1  0  0  0
 12  8  1  0  0  0
  7  1  1  0  0  0
 22 17  1  0  0  0
 32 24  1  0  0  0
 32 27  1  0  0  0
 13 16  1  0  0  0
M  END
> <minimizedAffinity>
-8.97326

> <CNNaffinity>
-1.0000000000

$$$$



 32 36  0  0  0  0  0  0  0  0999 V2000
   -9.4192  -12.5341   55.3990 N   0  0  0  0  0  0  0  0  0  0  0  0
  -10.1736  -13.1132   56.5151 C   0  0  0  0  0  0  0  0  0  0  0  0
  -11.2205  -12.1249   57.0403 C   0  0  0  0  0  0  0  0  0  0  0  0
  -12.2039  -11.6262   55.9440 C   0  0  0  0  0  0  0  0  0  0  0  0
  -11.4930  -10.6613   54.9520 C   0  0  0  0  0  0  0  0  0  0  0  0
  -10.8447  -11.3559   53.7367 C   0  0  0  0  0  0  0  0  0  0  0  0
  -10.0126  -12.6075   54.0597 C   0  0  0  0  0  0  0  0  0  0  0  0
   -8.2702  -10.1790   56.3400 S   0  0  0  0  0  0  0  0  0  0  0  0
   -6.5916  -10.0991   56.2441 C   0  0  0  0  0  0  0  0  0  0  0  0
   -6.0697  -11.2197   55.6976 N   0  0  0  0  0  0  0  0  0  0  0  0
   -6.9936  -12.1214   55.3705 N   0  0  0  0  0  0  0  0  0  0  0  0
   -8.2554  -11.7217   55.6506 C   0  0  0  0  0  0  0  0  0  0  0  0
   -5.8160   -8.9723   56.6727 N   0  0  0  0  0  0  0  0  0  0  0  0
   -5.4807   -7.8639   55.8185 C   0  0  0  0  0  0  0  0  0  0  0  0
   -5.6925   -7.9410   54.5768 O   0  0  0  0  0  0  0  0  0  0  0  0
   -5.4949   -8.9558   57.6032 H   0  0  0  0  0  0  0  0  0  0  0  0
   -4.8612   -6.6338   56.3702 C   0  0  0  0  0  0  0  0  0  0  0  0
   -4.1010   -5.7929   55.5349 C   0  0  0  0  0  0  0  0  0  0  0  0
   -3.5136   -4.6303   56.0438 C   0  0  0  0  0  0  0  0  0  0  0  0
   -3.6819   -4.2909   57.3875 C   0  0  0  0  0  0  0  0  0  0  0  0
   -4.4438   -5.1093   58.2236 C   0  0  0  0  0  0  0  0  0  0  0  0
   -5.0347   -6.2727   57.7201 C   0  0  0  0  0  0  0  0  0  0  0  0
  -13.4091  -10.9046   56.5942 C   0  0  0  0  0  0  0  0  0  0  0  0
  -14.7075  -11.6227   56.3546 C   0  0  0  0  0  0  0  0  0  0  0  0
  -14.7976  -12.9419   56.0714 N   0  0  0  0  0  0  0  0  0  0  0  0
  -16.0879  -13.2351   55.9339 N   0  0  0  0  0  0  0  0  0  0  0  0
  -16.7572  -12.0870   56.1419 C   0  0  0  0  0  0  0  0  0  0  0  0
  -18.1370  -11.9078   56.1102 C   0  0  0  0  0  0  0  0  0  0  0  0
  -18.6279  -10.6188   56.3809 C   0  0  0  0  0  0  0  0  0  0  0  0
  -17.7391   -9.5641   56.6736 C   0  0  0  0  0  0  0  0  0  0  0  0
  -16.3573   -9.8080   56.6881 C   0  0  0  0  0  0  0  0  0  0  0  0
  -15.9312  -11.0674   56.4099 N   0  0  0  0  0  0  0  0  0  0  0  0
  8  9  1  0  0  0
  9 13  1  0  0  0
 13 14  1  0  0  0
 14 15  2  0  0  0
 14 17  1  0  0  0
 17 18  2  0  0  0
 18 19  1  0  0  0
 19 20  2  0  0  0
 20 21  1  0  0  0
 21 22  2  0  0  0
  9 10  2  0  0  0
 10 11  1  0  0  0
 11 12  2  0  0  0
 12  1  1  0  0  0
  1  2  1  0  0  0
  2  3  1  0  0  0
  3  4  1  0  0  0
  4 23  1  0  0  0
 23 24  1  0  0  0
 24 25  2  0  0  0
 25 26  1  0  0  0
 26 27  2  0  0  0
 27 28  1  0  0  0
 28 29  2  0  0  0
 29 30  1  0  0  0
 30 31  2  0  0  0
 31 32  1  0  0  0
  4  5  1  0  0  0
  5  6  1  0  0  0
  6  7  1  0  0  0
 12  8  1  0  0  0
  7  1  1  0  0  0
 22 17  1  0  0  0
 32 24  1  0  0  0
 32 27  1  0  0  0
 13 16  1  0  0  0
M  END
> <minimizedAffinity>
-8.96174

> <CNNaffinity>
-1.0000000000

$$$$



 32 36  0  0  0  0  0  0  0  0999 V2000
    6.9500   -9.7121   34.8712 N   0  0  0  0  0  0  0  0  0  0  0  0
    6.7936  -11.0988   34.4207 C   0  0  0  0  0  0  0  0  0  0  0  0
    8.1475  -11.7069   34.0388 C   0  0  0  0  0  0  0  0  0  0  0  0
    9.1988  -11.6413   35.1824 C   0  0  0  0  0  0  0  0  0  0  0  0
    9.6881  -10.1820   35.4093 C   0  0  0  0  0  0  0  0  0  0  0  0
    8.8572   -9.3797   36.4318 C   0  0  0  0  0  0  0  0  0  0  0  0
    7.3322   -9.4848   36.2688 C   0  0  0  0  0  0  0  0  0  0  0  0
    6.7432   -6.9978   34.2866 S   0  0  0  0  0  0  0  0  0  0  0  0
    6.9250   -6.5866   32.6646 C   0  0  0  0  0  0  0  0  0  0  0  0
    7.1337   -7.6775   31.8942 N   0  0  0  0  0  0  0  0  0  0  0  0
    7.1533   -8.8130   32.5898 N   0  0  0  0  0  0  0  0  0  0  0  0
    6.9561   -8.6327   33.9160 C   0  0  0  0  0  0  0  0  0  0  0  0
    6.8487   -5.2458   32.1631 N   0  0  0  0  0  0  0  0  0  0  0  0
    5.6532   -4.4460   32.2044 C   0  0  0  0  0  0  0  0  0  0  0  0
    4.5506   -4.9794   32.5084 O   0  0  0  0  0  0  0  0  0  0  0  0
    7.6593   -4.8502   31.7685 H   0  0  0  0  0  0  0  0  0  0  0  0
    5.6879   -3.0016   31.8675 C   0  0  0  0  0  0  0  0  0  0  0  0
    4.9046   -2.0888   32.5997 C   0  0  0  0  0  0  0  0  0  0  0  0
    4.9305   -0.7249   32.2918 C   0  0  0  0  0  0  0  0  0  0  0  0
    5.7405   -0.2560   31.2559 C   0  0  0  0  0  0  0  0  0  0  0  0
    6.5318   -1.1486   30.5303 C   0  0  0  0  0  0  0  0  0  0  0  0
    6.5110   -2.5136   30.8343 C   0  0  0  0  0  0  0  0  0  0  0  0
   10.4090  -12.5473   34.8496 C   0  0  0  0  0  0  0  0  0  0  0  0
   10.7162  -13.5242   35.9496 C   0  0  0  0  0  0  0  0  0  0  0  0
    9.9522  -13.6794   37.0545 N   0  0  0  0  0  0  0  0  0  0  0  0
   10.5123  -14.6289   37.7990 N   0  0  0  0  0  0  0  0  0  0  0  0
   11.6045  -15.0359   37.1277 C   0  0  0  0  0  0  0  0  0  0  0  0
   12.5032  -16.0248   37.5170 C   0  0  0  0  0  0  0  0  0  0  0  0
   13.5702  -16.3076   36.6467 C   0  0  0  0  0  0  0  0  0  0  0  0
   13.7037  -15.6066   35.4306 C   0  0  0  0  0  0  0  0  0  0  0  0
   12.7655  -14.6185   35.0954 C   0  0  0  0  0  0  0  0  0  0  0  0
   11.7585  -14.3741   35.9736 N   0  0  0  0  0  0  0  0  0  0  0  0
  8  9  1  0  0  0
  9 13  1  0  0  0
 13 14  1  0  0  0
 14 15  2  0  0  0
 14 17  1  0  0  0
 17 18  2  0  0  0
 18 19  1  0  0  0
 19 20  2  0  0  0
 20 21  1  0  0  0
 21 22  2  0  0  0
  9 10  2  0  0  0
 10 11  1  0  0  0
 11 12  2  0  0  0
 12  1  1  0  0  0
  1  2  1  0  0  0
  2  3  1  0  0  0
  3  4  1  0  0  0
  4 23  1  0  0  0
 23 24  1  0  0  0
 24 25  2  0  0  0
 25 26  1  0  0  0
 26 27  2  0  0  0
 27 28  1  0  0  0
 28 29  2  0  0  0
 29 30  1  0  0  0
 30 31  2  0  0  0
 31 32  1  0  0  0
  4  5  1  0  0  0
  5  6  1  0  0  0
  6  7  1  0  0  0
 12  8  1  0  0  0
  7  1  1  0  0  0
 22 17  1  0  0  0
 32 24  1  0  0  0
 32 27  1  0  0  0
 13 16  1  0  0  0
M  END
> <minimizedAffinity>
-8.93298

> <CNNaffinity>
-1.0000000000

$$$$



 32 36  0  0  0  0  0  0  0  0999 V2000
    6.3963   -8.5834   35.0201 N   0  0  0  0  0  0  0  0  0  0  0  0
    6.7937   -9.5819   34.0225 C   0  0  0  0  0  0  0  0  0  0  0  0
    8.3199   -9.6845   33.9277 C   0  0  0  0  0  0  0  0  0  0  0  0
    9.0034   -9.9999   35.2882 C   0  0  0  0  0  0  0  0  0  0  0  0
    8.9410   -8.7733   36.2431 C   0  0  0  0  0  0  0  0  0  0  0  0
    7.6873   -8.7237   37.1407 C   0  0  0  0  0  0  0  0  0  0  0  0
    6.3543   -8.9988   36.4261 C   0  0  0  0  0  0  0  0  0  0  0  0
    7.0063   -6.4744   33.3078 S   0  0  0  0  0  0  0  0  0  0  0  0
    6.3169   -4.9912   33.7053 C   0  0  0  0  0  0  0  0  0  0  0  0
    5.5719   -5.0734   34.8301 N   0  0  0  0  0  0  0  0  0  0  0  0
    5.5503   -6.2971   35.3550 N   0  0  0  0  0  0  0  0  0  0  0  0
    6.2813   -7.1941   34.6538 C   0  0  0  0  0  0  0  0  0  0  0  0
    6.5131   -3.7874   32.9521 N   0  0  0  0  0  0  0  0  0  0  0  0
    5.4359   -2.9973   32.4171 C   0  0  0  0  0  0  0  0  0  0  0  0
    4.2596   -3.4543   32.4204 O   0  0  0  0  0  0  0  0  0  0  0  0
    7.4360   -3.4843   32.7921 H   0  0  0  0  0  0  0  0  0  0  0  0
    5.6881   -1.6572   31.8326 C   0  0  0  0  0  0  0  0  0  0  0  0
    6.5155   -1.5271   30.7007 C   0  0  0  0  0  0  0  0  0  0  0  0
    6.7591   -0.2691   30.1406 C   0  0  0  0  0  0  0  0  0  0  0  0
    6.1771    0.8706   30.6985 C   0  0  0  0  0  0  0  0  0  0  0  0
    5.3445    0.7543   31.8133 C   0  0  0  0  0  0  0  0  0  0  0  0
    5.0962   -0.5013   32.3772 C   0  0  0  0  0  0  0  0  0  0  0  0
   10.4799  -10.4068   35.0637 C   0  0  0  0  0  0  0  0  0  0  0  0
   10.7449  -11.8391   35.4338 C   0  0  0  0  0  0  0  0  0  0  0  0
    9.9308  -12.5763   36.2227 N   0  0  0  0  0  0  0  0  0  0  0  0
   10.4649  -13.7903   36.3267 N   0  0  0  0  0  0  0  0  0  0  0  0
   11.5922  -13.7675   35.5932 C   0  0  0  0  0  0  0  0  0  0  0  0
   12.4818  -14.8199   35.3974 C   0  0  0  0  0  0  0  0  0  0  0  0
   13.5921  -14.5820   34.5687 C   0  0  0  0  0  0  0  0  0  0  0  0
   13.7759  -13.3200   33.9674 C   0  0  0  0  0  0  0  0  0  0  0  0
   12.8442  -12.2981   34.2055 C   0  0  0  0  0  0  0  0  0  0  0  0
   11.7939  -12.5732   35.0218 N   0  0  0  0  0  0  0  0  0  0  0  0
  8  9  1  0  0  0
  9 13  1  0  0  0
 13 14  1  0  0  0
 14 15  2  0  0  0
 14 17  1  0  0  0
 17 18  2  0  0  0
 18 19  1  0  0  0
 19 20  2  0  0  0
 20 21  1  0  0  0
 21 22  2  0  0  0
  9 10  2  0  0  0
 10 11  1  0  0  0
 11 12  2  0  0  0
 12  1  1  0  0  0
  1  2  1  0  0  0
  2  3  1  0  0  0
  3  4  1  0  0  0
  4 23  1  0  0  0
 23 24  1  0  0  0
 24 25  2  0  0  0
 25 26  1  0  0  0
 26 27  2  0  0  0
 27 28  1  0  0  0
 28 29  2  0  0  0
 29 30  1  0  0  0
 30 31  2  0  0  0
 31 32  1  0  0  0
  4  5  1  0  0  0
  5  6  1  0  0  0
  6  7  1  0  0  0
 12  8  1  0  0  0
  7  1  1  0  0  0
 22 17  1  0  0  0
 32 24  1  0  0  0
 32 27  1  0  0  0
 13 16  1  0  0  0
M  END
> <minimizedAffinity>
-8.66730

> <CNNaffinity>
-1.0000000000

$$$$



 32 36  0  0  0  0  0  0  0  0999 V2000
   15.6519  -21.9398   46.2932 N   0  0  0  0  0  0  0  0  0  0  0  0
   16.0279  -21.4659   47.6289 C   0  0  0  0  0  0  0  0  0  0  0  0
   14.8882  -21.6860   48.6295 C   0  0  0  0  0  0  0  0  0  0  0  0
   14.4144  -23.1646   48.7107 C   0  0  0  0  0  0  0  0  0  0  0  0
   13.6391  -23.5748   47.4258 C   0  0  0  0  0  0  0  0  0  0  0  0
   14.5228  -24.1553   46.3025 C   0  0  0  0  0  0  0  0  0  0  0  0
   15.8096  -23.3690   46.0039 C   0  0  0  0  0  0  0  0  0  0  0  0
   14.7655  -21.3270   43.7260 S   0  0  0  0  0  0  0  0  0  0  0  0
   13.8432  -19.9257   43.5894 C   0  0  0  0  0  0  0  0  0  0  0  0
   13.6952  -19.3082   44.7826 N   0  0  0  0  0  0  0  0  0  0  0  0
   14.3014  -19.9477   45.7812 N   0  0  0  0  0  0  0  0  0  0  0  0
   14.9386  -21.0744   45.3878 C   0  0  0  0  0  0  0  0  0  0  0  0
   13.2992  -19.4400   42.3553 N   0  0  0  0  0  0  0  0  0  0  0  0
   14.0140  -18.5745   41.4548 C   0  0  0  0  0  0  0  0  0  0  0  0
   15.0950  -18.0382   41.8242 O   0  0  0  0  0  0  0  0  0  0  0  0
   12.3859  -19.7137   42.1101 H   0  0  0  0  0  0  0  0  0  0  0  0
   13.4864  -18.2770   40.1005 C   0  0  0  0  0  0  0  0  0  0  0  0
   12.4176  -19.0316   39.5799 C   0  0  0  0  0  0  0  0  0  0  0  0
   11.9113  -18.7592   38.3051 C   0  0  0  0  0  0  0  0  0  0  0  0
   12.4605  -17.7296   37.5387 C   0  0  0  0  0  0  0  0  0  0  0  0
   13.5122  -16.9654   38.0480 C   0  0  0  0  0  0  0  0  0  0  0  0
   14.0220  -17.2324   39.3227 C   0  0  0  0  0  0  0  0  0  0  0  0
   13.5090  -23.3693   49.9494 C   0  0  0  0  0  0  0  0  0  0  0  0
   14.1577  -22.8981   51.2206 C   0  0  0  0  0  0  0  0  0  0  0  0
   15.2084  -23.5173   51.8046 N   0  0  0  0  0  0  0  0  0  0  0  0
   15.5255  -22.8255   52.8958 N   0  0  0  0  0  0  0  0  0  0  0  0
   14.6626  -21.7951   52.9499 C   0  0  0  0  0  0  0  0  0  0  0  0
   14.6165  -20.7949   53.9168 C   0  0  0  0  0  0  0  0  0  0  0  0
   13.6404  -19.7947   53.7662 C   0  0  0  0  0  0  0  0  0  0  0  0
   12.7549  -19.8217   52.6693 C   0  0  0  0  0  0  0  0  0  0  0  0
   12.8504  -20.8586   51.7287 C   0  0  0  0  0  0  0  0  0  0  0  0
   13.8028  -21.8074   51.9232 N   0  0  0  0  0  0  0  0  0  0  0  0
  8  9  1  0  0  0
  9 13  1  0  0  0
 13 14  1  0  0  0
 14 15  2  0  0  0
 14 17  1  0  0  0
 17 18  2  0  0  0
 18 19  1  0  0  0
 19 20  2  0  0  0
 20 21  1  0  0  0
 21 22  2  0  0  0
  9 10  2  0  0  0
 10 11  1  0  0  0
 11 12  2  0  0  0
 12  1  1  0  0  0
  1  2  1  0  0  0
  2  3  1  0  0  0
  3  4  1  0  0  0
  4 23  1  0  0  0
 23 24  1  0  0  0
 24 25  2  0  0  0
 25 26  1  0  0  0
 26 27  2  0  0  0
 27 28  1  0  0  0
 28 29  2  0  0  0
 29 30  1  0  0  0
 30 31  2  0  0  0
 31 32  1  0  0  0
  4  5  1  0  0  0
  5  6  1  0  0  0
  6  7  1  0  0  0
 12  8  1  0  0  0
  7  1  1  0  0  0
 22 17  1  0  0  0
 32 24  1  0  0  0
 32 27  1  0  0  0
 13 16  1  0  0  0
M  END
> <minimizedAffinity>
-8.63041

> <CNNaffinity>
-1.0000000000

$$$$



 32 36  0  0  0  0  0  0  0  0999 V2000
    7.0825   -9.6761   34.7889 N   0  0  0  0  0  0  0  0  0  0  0  0
    7.4400   -9.5920   36.2144 C   0  0  0  0  0  0  0  0  0  0  0  0
    8.1015  -10.8700   36.7608 C   0  0  0  0  0  0  0  0  0  0  0  0
    9.2335  -11.4155   35.8483 C   0  0  0  0  0  0  0  0  0  0  0  0
    8.6886  -12.3914   34.7732 C   0  0  0  0  0  0  0  0  0  0  0  0
    7.8788  -11.7082   33.6624 C   0  0  0  0  0  0  0  0  0  0  0  0
    6.6604  -10.9516   34.1962 C   0  0  0  0  0  0  0  0  0  0  0  0
    7.0685   -6.8951   34.5787 S   0  0  0  0  0  0  0  0  0  0  0  0
    7.1168   -6.2834   33.0115 C   0  0  0  0  0  0  0  0  0  0  0  0
    7.1676   -7.2726   32.0918 N   0  0  0  0  0  0  0  0  0  0  0  0
    7.1613   -8.4902   32.6319 N   0  0  0  0  0  0  0  0  0  0  0  0
    7.1114   -8.4782   33.9847 C   0  0  0  0  0  0  0  0  0  0  0  0
    7.1205   -4.8854   32.6953 N   0  0  0  0  0  0  0  0  0  0  0  0
    5.9242   -4.1138   32.4880 C   0  0  0  0  0  0  0  0  0  0  0  0
    4.8029   -4.5952   32.8081 O   0  0  0  0  0  0  0  0  0  0  0  0
    7.9888   -4.4284   32.6156 H   0  0  0  0  0  0  0  0  0  0  0  0
    5.9893   -2.7405   31.9313 C   0  0  0  0  0  0  0  0  0  0  0  0
    5.2141   -1.6979   32.4748 C   0  0  0  0  0  0  0  0  0  0  0  0
    5.2906   -0.4072   31.9415 C   0  0  0  0  0  0  0  0  0  0  0  0
    6.1431   -0.1407   30.8679 C   0  0  0  0  0  0  0  0  0  0  0  0
    6.9253   -1.1636   30.3276 C   0  0  0  0  0  0  0  0  0  0  0  0
    6.8532   -2.4560   30.8566 C   0  0  0  0  0  0  0  0  0  0  0  0
   10.3480  -12.0940   36.6801 C   0  0  0  0  0  0  0  0  0  0  0  0
   11.3348  -12.8547   35.8330 C   0  0  0  0  0  0  0  0  0  0  0  0
   11.4169  -14.2050   35.8033 N   0  0  0  0  0  0  0  0  0  0  0  0
   12.3873  -14.5305   34.9541 N   0  0  0  0  0  0  0  0  0  0  0  0
   12.8780  -13.3697   34.4839 C   0  0  0  0  0  0  0  0  0  0  0  0
   13.9044  -13.2142   33.5559 C   0  0  0  0  0  0  0  0  0  0  0  0
   14.2534  -11.9029   33.1912 C   0  0  0  0  0  0  0  0  0  0  0  0
   13.5768  -10.8021   33.7551 C   0  0  0  0  0  0  0  0  0  0  0  0
   12.5503  -11.0236   34.6861 C   0  0  0  0  0  0  0  0  0  0  0  0
   12.2500  -12.3092   35.0098 N   0  0  0  0  0  0  0  0  0  0  0  0
  8  9  1  0  0  0
  9 13  1  0  0  0
 13 14  1  0  0  0
 14 15  2  0  0  0
 14 17  1  0  0  0
 17 18  2  0  0  0
 18 19  1  0  0  0
 19 20  2  0  0  0
 20 21  1  0  0  0
 21 22  2  0  0  0
  9 10  2  0  0  0
 10 11  1  0  0  0
 11 12  2  0  0  0
 12  1  1  0  0  0
  1  2  1  0  0  0
  2  3  1  0  0  0
  3  4  1  0  0  0
  4 23  1  0  0  0
 23 24  1  0  0  0
 24 25  2  0  0  0
 25 26  1  0  0  0
 26 27  2  0  0  0
 27 28  1  0  0  0
 28 29  2  0  0  0
 29 30  1  0  0  0
 30 31  2  0  0  0
 31 32  1  0  0  0
  4  5  1  0  0  0
  5  6  1  0  0  0
  6  7  1  0  0  0
 12  8  1  0  0  0
  7  1  1  0  0  0
 22 17  1  0  0  0
 32 24  1  0  0  0
 32 27  1  0  0  0
 13 16  1  0  0  0
M  END
> <minimizedAffinity>
-9.36979

> <CNNaffinity>
-1.0000000000

$$$$



 32 36  0  0  0  0  0  0  0  0999 V2000
   -4.3982   -8.0048   55.4549 N   0  0  0  0  0  0  0  0  0  0  0  0
   -5.4589   -8.3111   54.4812 C   0  0  0  0  0  0  0  0  0  0  0  0
   -6.2961   -9.5490   54.8502 C   0  0  0  0  0  0  0  0  0  0  0  0
   -6.7652   -9.5558   56.3305 C   0  0  0  0  0  0  0  0  0  0  0  0
   -5.7225  -10.2247   57.2635 C   0  0  0  0  0  0  0  0  0  0  0  0
   -4.4538   -9.3890   57.4831 C   0  0  0  0  0  0  0  0  0  0  0  0
   -3.7126   -9.0822   56.1798 C   0  0  0  0  0  0  0  0  0  0  0  0
   -4.9304   -5.4570   56.4568 S   0  0  0  0  0  0  0  0  0  0  0  0
   -3.7388   -4.3016   56.1775 C   0  0  0  0  0  0  0  0  0  0  0  0
   -2.6882   -4.8218   55.5047 N   0  0  0  0  0  0  0  0  0  0  0  0
   -2.8395   -6.1132   55.2156 N   0  0  0  0  0  0  0  0  0  0  0  0
   -4.0083   -6.6308   55.6612 C   0  0  0  0  0  0  0  0  0  0  0  0
   -3.8235   -2.9393   56.6150 N   0  0  0  0  0  0  0  0  0  0  0  0
   -2.7979   -2.2857   57.3834 C   0  0  0  0  0  0  0  0  0  0  0  0
   -1.6648   -2.8262   57.5069 O   0  0  0  0  0  0  0  0  0  0  0  0
   -4.6271   -2.4228   56.3768 H   0  0  0  0  0  0  0  0  0  0  0  0
   -3.0404   -0.9633   58.0100 C   0  0  0  0  0  0  0  0  0  0  0  0
   -2.9828   -0.7991   59.4076 C   0  0  0  0  0  0  0  0  0  0  0  0
   -3.2090    0.4557   59.9825 C   0  0  0  0  0  0  0  0  0  0  0  0
   -3.4879    1.5588   59.1728 C   0  0  0  0  0  0  0  0  0  0  0  0
   -3.5364    1.4111   57.7851 C   0  0  0  0  0  0  0  0  0  0  0  0
   -3.3110    0.1592   57.2044 C   0  0  0  0  0  0  0  0  0  0  0  0
   -8.1440  -10.2418   56.4800 C   0  0  0  0  0  0  0  0  0  0  0  0
   -8.1526  -11.6624   55.9781 C   0  0  0  0  0  0  0  0  0  0  0  0
   -7.0887  -12.2601   55.3932 N   0  0  0  0  0  0  0  0  0  0  0  0
   -7.4470  -13.5019   55.0798 N   0  0  0  0  0  0  0  0  0  0  0  0
   -8.7243  -13.6352   55.4798 C   0  0  0  0  0  0  0  0  0  0  0  0
   -9.5180  -14.7737   55.3673 C   0  0  0  0  0  0  0  0  0  0  0  0
  -10.8297  -14.6995   55.8655 C   0  0  0  0  0  0  0  0  0  0  0  0
  -11.3028  -13.5085   56.4531 C   0  0  0  0  0  0  0  0  0  0  0  0
  -10.4544  -12.3938   56.5374 C   0  0  0  0  0  0  0  0  0  0  0  0
   -9.1951  -12.5123   56.0394 N   0  0  0  0  0  0  0  0  0  0  0  0
  8  9  1  0  0  0
  9 13  1  0  0  0
 13 14  1  0  0  0
 14 15  2  0  0  0
 14 17  1  0  0  0
 17 18  2  0  0  0
 18 19  1  0  0  0
 19 20  2  0  0  0
 20 21  1  0  0  0
 21 22  2  0  0  0
  9 10  2  0  0  0
 10 11  1  0  0  0
 11 12  2  0  0  0
 12  1  1  0  0  0
  1  2  1  0  0  0
  2  3  1  0  0  0
  3  4  1  0  0  0
  4 23  1  0  0  0
 23 24  1  0  0  0
 24 25  2  0  0  0
 25 26  1  0  0  0
 26 27  2  0  0  0
 27 28  1  0  0  0
 28 29  2  0  0  0
 29 30  1  0  0  0
 30 31  2  0  0  0
 31 32  1  0  0  0
  4  5  1  0  0  0
  5  6  1  0  0  0
  6  7  1  0  0  0
 12  8  1  0  0  0
  7  1  1  0  0  0
 22 17  1  0  0  0
 32 24  1  0  0  0
 32 27  1  0  0  0
 13 16  1  0  0  0
M  END
> <minimizedAffinity>
-8.98904

> <CNNaffinity>
-1.0000000000

$$$$



 32 36  0  0  0  0  0  0  0  0999 V2000
   -9.0809  -12.4947   54.2070 N   0  0  0  0  0  0  0  0  0  0  0  0
  -10.2936  -11.8387   53.6914 C   0  0  0  0  0  0  0  0  0  0  0  0
  -11.5678  -12.6886   53.8458 C   0  0  0  0  0  0  0  0  0  0  0  0
  -11.7273  -13.3067   55.2614 C   0  0  0  0  0  0  0  0  0  0  0  0
  -11.0284  -14.6868   55.3709 C   0  0  0  0  0  0  0  0  0  0  0  0
   -9.4953  -14.6115   55.3819 C   0  0  0  0  0  0  0  0  0  0  0  0
   -8.9247  -13.9525   54.1241 C   0  0  0  0  0  0  0  0  0  0  0  0
   -8.1207  -10.0243   55.0749 S   0  0  0  0  0  0  0  0  0  0  0  0
   -6.5309  -10.0146   55.6272 C   0  0  0  0  0  0  0  0  0  0  0  0
   -5.9746  -11.2450   55.5661 N   0  0  0  0  0  0  0  0  0  0  0  0
   -6.8019  -12.1699   55.0821 N   0  0  0  0  0  0  0  0  0  0  0  0
   -8.0236  -11.6834   54.7605 C   0  0  0  0  0  0  0  0  0  0  0  0
   -5.8584   -8.8474   56.1169 N   0  0  0  0  0  0  0  0  0  0  0  0
   -5.4670   -8.6725   57.4901 C   0  0  0  0  0  0  0  0  0  0  0  0
   -5.4966   -9.6543   58.2816 O   0  0  0  0  0  0  0  0  0  0  0  0
   -5.6532   -8.1262   55.4789 H   0  0  0  0  0  0  0  0  0  0  0  0
   -4.9950   -7.3570   57.9869 C   0  0  0  0  0  0  0  0  0  0  0  0
   -4.6357   -7.1756   59.3365 C   0  0  0  0  0  0  0  0  0  0  0  0
   -4.1877   -5.9300   59.7882 C   0  0  0  0  0  0  0  0  0  0  0  0
   -4.0870   -4.8563   58.9009 C   0  0  0  0  0  0  0  0  0  0  0  0
   -4.4295   -5.0266   57.5579 C   0  0  0  0  0  0  0  0  0  0  0  0
   -4.8779   -6.2695   57.1003 C   0  0  0  0  0  0  0  0  0  0  0  0
  -13.2182  -13.4220   55.6594 C   0  0  0  0  0  0  0  0  0  0  0  0
  -13.8388  -12.0943   56.0089 C   0  0  0  0  0  0  0  0  0  0  0  0
  -13.1261  -10.9651   56.2280 N   0  0  0  0  0  0  0  0  0  0  0  0
  -13.9891   -9.9925   56.5075 N   0  0  0  0  0  0  0  0  0  0  0  0
  -15.2118  -10.5504   56.4540 C   0  0  0  0  0  0  0  0  0  0  0  0
  -16.4297   -9.9100   56.6673 C   0  0  0  0  0  0  0  0  0  0  0  0
  -17.5967  -10.6835   56.5484 C   0  0  0  0  0  0  0  0  0  0  0  0
  -17.5143  -12.0530   56.2242 C   0  0  0  0  0  0  0  0  0  0  0  0
  -16.2567  -12.6417   56.0210 C   0  0  0  0  0  0  0  0  0  0  0  0
  -15.1562  -11.8542   56.1496 N   0  0  0  0  0  0  0  0  0  0  0  0
  8  9  1  0  0  0
  9 13  1  0  0  0
 13 14  1  0  0  0
 14 15  2  0  0  0
 14 17  1  0  0  0
 17 18  2  0  0  0
 18 19  1  0  0  0
 19 20  2  0  0  0
 20 21  1  0  0  0
 21 22  2  0  0  0
  9 10  2  0  0  0
 10 11  1  0  0  0
 11 12  2  0  0  0
 12  1  1  0  0  0
  1  2  1  0  0  0
  2  3  1  0  0  0
  3  4  1  0  0  0
  4 23  1  0  0  0
 23 24  1  0  0  0
 24 25  2  0  0  0
 25 26  1  0  0  0
 26 27  2  0  0  0
 27 28  1  0  0  0
 28 29  2  0  0  0
 29 30  1  0  0  0
 30 31  2  0  0  0
 31 32  1  0  0  0
  4  5  1  0  0  0
  5  6  1  0  0  0
  6  7  1  0  0  0
 12  8  1  0  0  0
  7  1  1  0  0  0
 22 17  1  0  0  0
 32 24  1  0  0  0
 32 27  1  0  0  0
 13 16  1  0  0  0
M  END
> <minimizedAffinity>
-8.97457

> <CNNaffinity>
-1.0000000000

$$$$



 32 36  0  0  0  0  0  0  0  0999 V2000
    9.3269  -10.0089   35.1450 N   0  0  0  0  0  0  0  0  0  0  0  0
    7.9294  -10.3264   34.8085 C   0  0  0  0  0  0  0  0  0  0  0  0
    7.1042   -9.0997   34.3795 C   0  0  0  0  0  0  0  0  0  0  0  0
    7.8269   -8.2068   33.3346 C   0  0  0  0  0  0  0  0  0  0  0  0
    8.7141   -7.1294   34.0109 C   0  0  0  0  0  0  0  0  0  0  0  0
    9.9811   -7.6890   34.6727 C   0  0  0  0  0  0  0  0  0  0  0  0
    9.6757   -8.7218   35.7600 C   0  0  0  0  0  0  0  0  0  0  0  0
   12.0080  -10.7768   35.1591 S   0  0  0  0  0  0  0  0  0  0  0  0
   12.3214  -12.3360   34.6084 C   0  0  0  0  0  0  0  0  0  0  0  0
   11.1855  -12.9765   34.2524 N   0  0  0  0  0  0  0  0  0  0  0  0
   10.0928  -12.2317   34.4119 N   0  0  0  0  0  0  0  0  0  0  0  0
   10.3508  -10.9961   34.9011 C   0  0  0  0  0  0  0  0  0  0  0  0
   13.6305  -12.9159   34.5421 N   0  0  0  0  0  0  0  0  0  0  0  0
   14.3683  -13.3480   35.6990 C   0  0  0  0  0  0  0  0  0  0  0  0
   13.7871  -13.4455   36.8144 O   0  0  0  0  0  0  0  0  0  0  0  0
   14.0473  -13.0244   33.6569 H   0  0  0  0  0  0  0  0  0  0  0  0
   15.8018  -13.7148   35.5961 C   0  0  0  0  0  0  0  0  0  0  0  0
   16.7115  -12.9029   34.8914 C   0  0  0  0  0  0  0  0  0  0  0  0
   18.0611  -13.2602   34.8078 C   0  0  0  0  0  0  0  0  0  0  0  0
   18.5189  -14.4240   35.4293 C   0  0  0  0  0  0  0  0  0  0  0  0
   17.6288  -15.2313   36.1407 C   0  0  0  0  0  0  0  0  0  0  0  0
   16.2784  -14.8793   36.2279 C   0  0  0  0  0  0  0  0  0  0  0  0
    6.8173   -7.5463   32.3657 C   0  0  0  0  0  0  0  0  0  0  0  0
    6.0787   -6.3880   32.9843 C   0  0  0  0  0  0  0  0  0  0  0  0
    5.4432   -6.4518   34.1773 N   0  0  0  0  0  0  0  0  0  0  0  0
    4.9066   -5.2578   34.4117 N   0  0  0  0  0  0  0  0  0  0  0  0
    5.2258   -4.4899   33.3544 C   0  0  0  0  0  0  0  0  0  0  0  0
    4.8872   -3.1529   33.1633 C   0  0  0  0  0  0  0  0  0  0  0  0
    5.3373   -2.5338   31.9851 C   0  0  0  0  0  0  0  0  0  0  0  0
    6.1014   -3.2571   31.0468 C   0  0  0  0  0  0  0  0  0  0  0  0
    6.4104   -4.6031   31.2961 C   0  0  0  0  0  0  0  0  0  0  0  0
    5.9507   -5.1596   32.4480 N   0  0  0  0  0  0  0  0  0  0  0  0
  8  9  1  0  0  0
  9 13  1  0  0  0
 13 14  1  0  0  0
 14 15  2  0  0  0
 14 17  1  0  0  0
 17 18  2  0  0  0
 18 19  1  0  0  0
 19 20  2  0  0  0
 20 21  1  0  0  0
 21 22  2  0  0  0
  9 10  2  0  0  0
 10 11  1  0  0  0
 11 12  2  0  0  0
 12  1  1  0  0  0
  1  2  1  0  0  0
  2  3  1  0  0  0
  3  4  1  0  0  0
  4 23  1  0  0  0
 23 24  1  0  0  0
 24 25  2  0  0  0
 25 26  1  0  0  0
 26 27  2  0  0  0
 27 28  1  0  0  0
 28 29  2  0  0  0
 29 30  1  0  0  0
 30 31  2  0  0  0
 31 32  1  0  0  0
  4  5  1  0  0  0
  5  6  1  0  0  0
  6  7  1  0  0  0
 12  8  1  0  0  0
  7  1  1  0  0  0
 22 17  1  0  0  0
 32 24  1  0  0  0
 32 27  1  0  0  0
 13 16  1  0  0  0
M  END
> <minimizedAffinity>
-8.90522

> <CNNaffinity>
-1.0000000000

$$$$



 32 36  0  0  0  0  0  0  0  0999 V2000
   -3.3019   -3.7158   57.6617 N   0  0  0  0  0  0  0  0  0  0  0  0
   -2.8987   -3.9775   56.2704 C   0  0  0  0  0  0  0  0  0  0  0  0
   -3.2990   -5.3753   55.7647 C   0  0  0  0  0  0  0  0  0  0  0  0
   -4.7726   -5.7466   56.0845 C   0  0  0  0  0  0  0  0  0  0  0  0
   -4.9091   -6.4240   57.4729 C   0  0  0  0  0  0  0  0  0  0  0  0
   -4.7059   -5.4683   58.6568 C   0  0  0  0  0  0  0  0  0  0  0  0
   -3.3288   -4.8009   58.6508 C   0  0  0  0  0  0  0  0  0  0  0  0
   -3.0308   -1.5676   59.4195 S   0  0  0  0  0  0  0  0  0  0  0  0
   -3.9421   -0.2026   59.0467 C   0  0  0  0  0  0  0  0  0  0  0  0
   -4.6645   -0.3787   57.9179 N   0  0  0  0  0  0  0  0  0  0  0  0
   -4.4951   -1.5812   57.3705 N   0  0  0  0  0  0  0  0  0  0  0  0
   -3.6328   -2.3677   58.0563 C   0  0  0  0  0  0  0  0  0  0  0  0
   -3.9376    1.0022   59.8231 N   0  0  0  0  0  0  0  0  0  0  0  0
   -3.0473    2.1046   59.5753 C   0  0  0  0  0  0  0  0  0  0  0  0
   -2.3825    2.1466   58.5040 O   0  0  0  0  0  0  0  0  0  0  0  0
   -4.5786    1.0795   60.5664 H   0  0  0  0  0  0  0  0  0  0  0  0
   -2.9210    3.2167   60.5487 C   0  0  0  0  0  0  0  0  0  0  0  0
   -3.1606    4.5503   60.1645 C   0  0  0  0  0  0  0  0  0  0  0  0
   -3.0421    5.5871   61.0958 C   0  0  0  0  0  0  0  0  0  0  0  0
   -2.6910    5.3063   62.4180 C   0  0  0  0  0  0  0  0  0  0  0  0
   -2.4622    3.9868   62.8139 C   0  0  0  0  0  0  0  0  0  0  0  0
   -2.5791    2.9460   61.8875 C   0  0  0  0  0  0  0  0  0  0  0  0
   -5.3773   -6.6472   54.9810 C   0  0  0  0  0  0  0  0  0  0  0  0
   -5.3418   -8.1122   55.3314 C   0  0  0  0  0  0  0  0  0  0  0  0
   -4.2363   -8.8849   55.2236 N   0  0  0  0  0  0  0  0  0  0  0  0
   -4.5638  -10.1128   55.6157 N   0  0  0  0  0  0  0  0  0  0  0  0
   -5.8648  -10.0630   55.9540 C   0  0  0  0  0  0  0  0  0  0  0  0
   -6.6413  -11.1141   56.4348 C   0  0  0  0  0  0  0  0  0  0  0  0
   -7.9846  -10.8384   56.7408 C   0  0  0  0  0  0  0  0  0  0  0  0
   -8.5050   -9.5406   56.5609 C   0  0  0  0  0  0  0  0  0  0  0  0
   -7.6718   -8.5225   56.0723 C   0  0  0  0  0  0  0  0  0  0  0  0
   -6.3805   -8.8374   55.7877 N   0  0  0  0  0  0  0  0  0  0  0  0
  8  9  1  0  0  0
  9 13  1  0  0  0
 13 14  1  0  0  0
 14 15  2  0  0  0
 14 17  1  0  0  0
 17 18  2  0  0  0
 18 19  1  0  0  0
 19 20  2  0  0  0
 20 21  1  0  0  0
 21 22  2  0  0  0
  9 10  2  0  0  0
 10 11  1  0  0  0
 11 12  2  0  0  0
 12  1  1  0  0  0
  1  2  1  0  0  0
  2  3  1  0  0  0
  3  4  1  0  0  0
  4 23  1  0  0  0
 23 24  1  0  0  0
 24 25  2  0  0  0
 25 26  1  0  0  0
 26 27  2  0  0  0
 27 28  1  0  0  0
 28 29  2  0  0  0
 29 30  1  0  0  0
 30 31  2  0  0  0
 31 32  1  0  0  0
  4  5  1  0  0  0
  5  6  1  0  0  0
  6  7  1  0  0  0
 12  8  1  0  0  0
  7  1  1  0  0  0
 22 17  1  0  0  0
 32 24  1  0  0  0
 32 27  1  0  0  0
 13 16  1  0  0  0
M  END
> <minimizedAffinity>
-8.86893

> <CNNaffinity>
-1.0000000000

$$$$



 32 36  0  0  0  0  0  0  0  0999 V2000
   -4.1945   -7.5398   55.5776 N   0  0  0  0  0  0  0  0  0  0  0  0
   -4.7235   -7.9407   54.2638 C   0  0  0  0  0  0  0  0  0  0  0  0
   -5.7421   -9.0927   54.3344 C   0  0  0  0  0  0  0  0  0  0  0  0
   -6.8275   -8.8884   55.4260 C   0  0  0  0  0  0  0  0  0  0  0  0
   -6.3815   -9.4585   56.7975 C   0  0  0  0  0  0  0  0  0  0  0  0
   -5.2808   -8.6397   57.4863 C   0  0  0  0  0  0  0  0  0  0  0  0
   -4.0074   -8.5315   56.6444 C   0  0  0  0  0  0  0  0  0  0  0  0
   -4.7625   -5.0033   56.5885 S   0  0  0  0  0  0  0  0  0  0  0  0
   -3.5806   -3.8341   56.3267 C   0  0  0  0  0  0  0  0  0  0  0  0
   -2.5184   -4.3395   55.6609 N   0  0  0  0  0  0  0  0  0  0  0  0
   -2.6534   -5.6308   55.3633 N   0  0  0  0  0  0  0  0  0  0  0  0
   -3.8209   -6.1630   55.7951 C   0  0  0  0  0  0  0  0  0  0  0  0
   -3.6835   -2.4752   56.7709 N   0  0  0  0  0  0  0  0  0  0  0  0
   -2.7017   -1.8346   57.6046 C   0  0  0  0  0  0  0  0  0  0  0  0
   -1.5809   -2.3830   57.7900 O   0  0  0  0  0  0  0  0  0  0  0  0
   -4.4687   -1.9518   56.4902 H   0  0  0  0  0  0  0  0  0  0  0  0
   -2.9736   -0.5163   58.2278 C   0  0  0  0  0  0  0  0  0  0  0  0
   -3.1396   -0.3906   59.6207 C   0  0  0  0  0  0  0  0  0  0  0  0
   -3.3906    0.8605   60.1933 C   0  0  0  0  0  0  0  0  0  0  0  0
   -3.4722    1.9979   59.3870 C   0  0  0  0  0  0  0  0  0  0  0  0
   -3.2981    1.8879   58.0059 C   0  0  0  0  0  0  0  0  0  0  0  0
   -3.0468    0.6398   57.4276 C   0  0  0  0  0  0  0  0  0  0  0  0
   -8.1795   -9.5065   54.9967 C   0  0  0  0  0  0  0  0  0  0  0  0
   -9.2884   -9.2392   55.9811 C   0  0  0  0  0  0  0  0  0  0  0  0
   -9.6547   -8.0002   56.3835 N   0  0  0  0  0  0  0  0  0  0  0  0
  -10.6579   -8.1375   57.2457 N   0  0  0  0  0  0  0  0  0  0  0  0
  -10.8819   -9.4595   57.3519 C   0  0  0  0  0  0  0  0  0  0  0  0
  -11.8501  -10.0800   58.1371 C   0  0  0  0  0  0  0  0  0  0  0  0
  -11.9203  -11.4825   58.0892 C   0  0  0  0  0  0  0  0  0  0  0  0
  -11.0353  -12.2131   57.2703 C   0  0  0  0  0  0  0  0  0  0  0  0
  -10.0803  -11.5300   56.5015 C   0  0  0  0  0  0  0  0  0  0  0  0
  -10.0486  -10.1735   56.5828 N   0  0  0  0  0  0  0  0  0  0  0  0
  8  9  1  0  0  0
  9 13  1  0  0  0
 13 14  1  0  0  0
 14 15  2  0  0  0
 14 17  1  0  0  0
 17 18  2  0  0  0
 18 19  1  0  0  0
 19 20  2  0  0  0
 20 21  1  0  0  0
 21 22  2  0  0  0
  9 10  2  0  0  0
 10 11  1  0  0  0
 11 12  2  0  0  0
 12  1  1  0  0  0
  1  2  1  0  0  0
  2  3  1  0  0  0
  3  4  1  0  0  0
  4 23  1  0  0  0
 23 24  1  0  0  0
 24 25  2  0  0  0
 25 26  1  0  0  0
 26 27  2  0  0  0
 27 28  1  0  0  0
 28 29  2  0  0  0
 29 30  1  0  0  0
 30 31  2  0  0  0
 31 32  1  0  0  0
  4  5  1  0  0  0
  5  6  1  0  0  0
  6  7  1  0  0  0
 12  8  1  0  0  0
  7  1  1  0  0  0
 22 17  1  0  0  0
 32 24  1  0  0  0
 32 27  1  0  0  0
 13 16  1  0  0  0
M  END
> <minimizedAffinity>
-8.86008

> <CNNaffinity>
-1.0000000000

$$$$



 32 36  0  0  0  0  0  0  0  0999 V2000
    8.3342   -9.7151   36.3276 N   0  0  0  0  0  0  0  0  0  0  0  0
    6.9062   -9.3669   36.2475 C   0  0  0  0  0  0  0  0  0  0  0  0
    6.6212   -8.1275   35.3802 C   0  0  0  0  0  0  0  0  0  0  0  0
    7.3511   -8.1544   34.0098 C   0  0  0  0  0  0  0  0  0  0  0  0
    8.7664   -7.5264   34.0970 C   0  0  0  0  0  0  0  0  0  0  0  0
    9.7855   -8.3861   34.8577 C   0  0  0  0  0  0  0  0  0  0  0  0
    9.3634   -8.6679   36.3015 C   0  0  0  0  0  0  0  0  0  0  0  0
   10.1605  -11.6555   37.1508 S   0  0  0  0  0  0  0  0  0  0  0  0
    9.7045  -13.2507   36.8682 C   0  0  0  0  0  0  0  0  0  0  0  0
    8.4884  -13.3251   36.2828 N   0  0  0  0  0  0  0  0  0  0  0  0
    7.9403  -12.1315   36.0614 N   0  0  0  0  0  0  0  0  0  0  0  0
    8.7134  -11.0997   36.4741 C   0  0  0  0  0  0  0  0  0  0  0  0
   10.5022  -14.3881   37.2210 N   0  0  0  0  0  0  0  0  0  0  0  0
   10.0814  -15.3943   38.1590 C   0  0  0  0  0  0  0  0  0  0  0  0
    8.8793  -15.4352   38.5393 O   0  0  0  0  0  0  0  0  0  0  0  0
   11.3860  -14.4861   36.7985 H   0  0  0  0  0  0  0  0  0  0  0  0
   11.0349  -16.4116   38.6651 C   0  0  0  0  0  0  0  0  0  0  0  0
   10.8079  -17.0780   39.8849 C   0  0  0  0  0  0  0  0  0  0  0  0
   11.7143  -18.0383   40.3458 C   0  0  0  0  0  0  0  0  0  0  0  0
   12.8502  -18.3488   39.5952 C   0  0  0  0  0  0  0  0  0  0  0  0
   13.0805  -17.7031   38.3786 C   0  0  0  0  0  0  0  0  0  0  0  0
   12.1779  -16.7422   37.9125 C   0  0  0  0  0  0  0  0  0  0  0  0
    6.5142   -7.4528   32.9136 C   0  0  0  0  0  0  0  0  0  0  0  0
    5.9338   -6.1383   33.3666 C   0  0  0  0  0  0  0  0  0  0  0  0
    5.4320   -5.9244   34.6049 N   0  0  0  0  0  0  0  0  0  0  0  0
    5.0118   -4.6636   34.6565 N   0  0  0  0  0  0  0  0  0  0  0  0
    5.2656   -4.1347   33.4460 C   0  0  0  0  0  0  0  0  0  0  0  0
    5.0045   -2.8300   33.0356 C   0  0  0  0  0  0  0  0  0  0  0  0
    5.3640   -2.4808   31.7230 C   0  0  0  0  0  0  0  0  0  0  0  0
    5.9653   -3.4303   30.8719 C   0  0  0  0  0  0  0  0  0  0  0  0
    6.2028   -4.7305   31.3438 C   0  0  0  0  0  0  0  0  0  0  0  0
    5.8354   -5.0224   32.6195 N   0  0  0  0  0  0  0  0  0  0  0  0
  8  9  1  0  0  0
  9 13  1  0  0  0
 13 14  1  0  0  0
 14 15  2  0  0  0
 14 17  1  0  0  0
 17 18  2  0  0  0
 18 19  1  0  0  0
 19 20  2  0  0  0
 20 21  1  0  0  0
 21 22  2  0  0  0
  9 10  2  0  0  0
 10 11  1  0  0  0
 11 12  2  0  0  0
 12  1  1  0  0  0
  1  2  1  0  0  0
  2  3  1  0  0  0
  3  4  1  0  0  0
  4 23  1  0  0  0
 23 24  1  0  0  0
 24 25  2  0  0  0
 25 26  1  0  0  0
 26 27  2  0  0  0
 27 28  1  0  0  0
 28 29  2  0  0  0
 29 30  1  0  0  0
 30 31  2  0  0  0
 31 32  1  0  0  0
  4  5  1  0  0  0
  5  6  1  0  0  0
  6  7  1  0  0  0
 12  8  1  0  0  0
  7  1  1  0  0  0
 22 17  1  0  0  0
 32 24  1  0  0  0
 32 27  1  0  0  0
 13 16  1  0  0  0
M  END
> <minimizedAffinity>
-8.81017

> <CNNaffinity>
-1.0000000000

$$$$



 32 36  0  0  0  0  0  0  0  0999 V2000
   -3.4593   -3.8571   57.6303 N   0  0  0  0  0  0  0  0  0  0  0  0
   -3.2819   -4.1999   56.2098 C   0  0  0  0  0  0  0  0  0  0  0  0
   -3.7334   -5.6293   55.8592 C   0  0  0  0  0  0  0  0  0  0  0  0
   -5.1288   -5.9926   56.4358 C   0  0  0  0  0  0  0  0  0  0  0  0
   -5.0264   -6.5850   57.8653 C   0  0  0  0  0  0  0  0  0  0  0  0
   -4.6516   -5.5572   58.9421 C   0  0  0  0  0  0  0  0  0  0  0  0
   -3.3060   -4.8799   58.6728 C   0  0  0  0  0  0  0  0  0  0  0  0
   -3.1437   -1.6885   59.3554 S   0  0  0  0  0  0  0  0  0  0  0  0
   -3.9931   -0.2968   58.9379 C   0  0  0  0  0  0  0  0  0  0  0  0
   -4.6970   -0.4661   57.7964 N   0  0  0  0  0  0  0  0  0  0  0  0
   -4.5623   -1.6842   57.2744 N   0  0  0  0  0  0  0  0  0  0  0  0
   -3.7463   -2.4902   57.9933 C   0  0  0  0  0  0  0  0  0  0  0  0
   -3.9590    0.9212   59.6927 N   0  0  0  0  0  0  0  0  0  0  0  0
   -3.1616    2.0613   59.3270 C   0  0  0  0  0  0  0  0  0  0  0  0
   -2.6305    2.1158   58.1841 O   0  0  0  0  0  0  0  0  0  0  0  0
   -4.5112    0.9808   60.5056 H   0  0  0  0  0  0  0  0  0  0  0  0
   -2.9788    3.1964   60.2642 C   0  0  0  0  0  0  0  0  0  0  0  0
   -3.2121    4.5232   59.8537 C   0  0  0  0  0  0  0  0  0  0  0  0
   -3.0399    5.5821   60.7512 C   0  0  0  0  0  0  0  0  0  0  0  0
   -2.6409    5.3304   62.0656 C   0  0  0  0  0  0  0  0  0  0  0  0
   -2.4177    4.0182   62.4877 C   0  0  0  0  0  0  0  0  0  0  0  0
   -2.5882    2.9554   61.5952 C   0  0  0  0  0  0  0  0  0  0  0  0
   -5.8877   -6.9640   55.5004 C   0  0  0  0  0  0  0  0  0  0  0  0
   -7.3456   -7.1037   55.8540 C   0  0  0  0  0  0  0  0  0  0  0  0
   -8.2310   -6.0812   55.8129 N   0  0  0  0  0  0  0  0  0  0  0  0
   -9.4156   -6.5597   56.1822 N   0  0  0  0  0  0  0  0  0  0  0  0
   -9.2271   -7.8659   56.4422 C   0  0  0  0  0  0  0  0  0  0  0  0
  -10.1925   -8.7814   56.8530 C   0  0  0  0  0  0  0  0  0  0  0  0
   -9.7798  -10.1089   57.0568 C   0  0  0  0  0  0  0  0  0  0  0  0
   -8.4353  -10.4777   56.8470 C   0  0  0  0  0  0  0  0  0  0  0  0
   -7.5084   -9.5087   56.4329 C   0  0  0  0  0  0  0  0  0  0  0  0
   -7.9538   -8.2373   56.2514 N   0  0  0  0  0  0  0  0  0  0  0  0
  8  9  1  0  0  0
  9 13  1  0  0  0
 13 14  1  0  0  0
 14 15  2  0  0  0
 14 17  1  0  0  0
 17 18  2  0  0  0
 18 19  1  0  0  0
 19 20  2  0  0  0
 20 21  1  0  0  0
 21 22  2  0  0  0
  9 10  2  0  0  0
 10 11  1  0  0  0
 11 12  2  0  0  0
 12  1  1  0  0  0
  1  2  1  0  0  0
  2  3  1  0  0  0
  3  4  1  0  0  0
  4 23  1  0  0  0
 23 24  1  0  0  0
 24 25  2  0  0  0
 25 26  1  0  0  0
 26 27  2  0  0  0
 27 28  1  0  0  0
 28 29  2  0  0  0
 29 30  1  0  0  0
 30 31  2  0  0  0
 31 32  1  0  0  0
  4  5  1  0  0  0
  5  6  1  0  0  0
  6  7  1  0  0  0
 12  8  1  0  0  0
  7  1  1  0  0  0
 22 17  1  0  0  0
 32 24  1  0  0  0
 32 27  1  0  0  0
 13 16  1  0  0  0
M  END
> <minimizedAffinity>
-8.80970

> <CNNaffinity>
-1.0000000000

$$$$



 32 36  0  0  0  0  0  0  0  0999 V2000
   11.6437  -14.5373   38.5240 N   0  0  0  0  0  0  0  0  0  0  0  0
   12.8051  -13.7612   38.9885 C   0  0  0  0  0  0  0  0  0  0  0  0
   14.1028  -14.5849   39.0749 C   0  0  0  0  0  0  0  0  0  0  0  0
   14.3718  -15.4439   37.8095 C   0  0  0  0  0  0  0  0  0  0  0  0
   13.7083  -16.8421   37.9091 C   0  0  0  0  0  0  0  0  0  0  0  0
   12.1785  -16.8179   37.7852 C   0  0  0  0  0  0  0  0  0  0  0  0
   11.5097  -15.9601   38.8618 C   0  0  0  0  0  0  0  0  0  0  0  0
   10.7434  -12.3405   37.0606 S   0  0  0  0  0  0  0  0  0  0  0  0
    9.1665  -12.4480   36.4823 C   0  0  0  0  0  0  0  0  0  0  0  0
    8.5889  -13.6210   36.8250 N   0  0  0  0  0  0  0  0  0  0  0  0
    9.3902  -14.4100   37.5390 N   0  0  0  0  0  0  0  0  0  0  0  0
   10.6122  -13.8730   37.7643 C   0  0  0  0  0  0  0  0  0  0  0  0
    8.5241  -11.4270   35.7081 N   0  0  0  0  0  0  0  0  0  0  0  0
    8.3407  -11.5063   34.2835 C   0  0  0  0  0  0  0  0  0  0  0  0
    8.5368  -12.5992   33.6848 O   0  0  0  0  0  0  0  0  0  0  0  0
    8.1903  -10.6281   36.1767 H   0  0  0  0  0  0  0  0  0  0  0  0
    7.8905  -10.3263   33.5057 C   0  0  0  0  0  0  0  0  0  0  0  0
    8.1765   -9.0172   33.9392 C   0  0  0  0  0  0  0  0  0  0  0  0
    7.7491   -7.9150   33.1917 C   0  0  0  0  0  0  0  0  0  0  0  0
    7.0396   -8.1050   32.0040 C   0  0  0  0  0  0  0  0  0  0  0  0
    6.7598   -9.3982   31.5577 C   0  0  0  0  0  0  0  0  0  0  0  0
    7.1845  -10.5041   32.3006 C   0  0  0  0  0  0  0  0  0  0  0  0
   15.8886  -15.5827   37.5367 C   0  0  0  0  0  0  0  0  0  0  0  0
   16.3972  -14.5935   36.5205 C   0  0  0  0  0  0  0  0  0  0  0  0
   15.5925  -13.8383   35.7375 N   0  0  0  0  0  0  0  0  0  0  0  0
   16.3723  -13.0840   34.9683 N   0  0  0  0  0  0  0  0  0  0  0  0
   17.6383  -13.3965   35.2982 C   0  0  0  0  0  0  0  0  0  0  0  0
   18.7992  -12.8485   34.7590 C   0  0  0  0  0  0  0  0  0  0  0  0
   20.0269  -13.3124   35.2607 C   0  0  0  0  0  0  0  0  0  0  0  0
   20.0587  -14.2947   36.2714 C   0  0  0  0  0  0  0  0  0  0  0  0
   18.8538  -14.8090   36.7748 C   0  0  0  0  0  0  0  0  0  0  0  0
   17.6913  -14.3316   36.2566 N   0  0  0  0  0  0  0  0  0  0  0  0
  8  9  1  0  0  0
  9 13  1  0  0  0
 13 14  1  0  0  0
 14 15  2  0  0  0
 14 17  1  0  0  0
 17 18  2  0  0  0
 18 19  1  0  0  0
 19 20  2  0  0  0
 20 21  1  0  0  0
 21 22  2  0  0  0
  9 10  2  0  0  0
 10 11  1  0  0  0
 11 12  2  0  0  0
 12  1  1  0  0  0
  1  2  1  0  0  0
  2  3  1  0  0  0
  3  4  1  0  0  0
  4 23  1  0  0  0
 23 24  1  0  0  0
 24 25  2  0  0  0
 25 26  1  0  0  0
 26 27  2  0  0  0
 27 28  1  0  0  0
 28 29  2  0  0  0
 29 30  1  0  0  0
 30 31  2  0  0  0
 31 32  1  0  0  0
  4  5  1  0  0  0
  5  6  1  0  0  0
  6  7  1  0  0  0
 12  8  1  0  0  0
  7  1  1  0  0  0
 22 17  1  0  0  0
 32 24  1  0  0  0
 32 27  1  0  0  0
 13 16  1  0  0  0
M  END
> <minimizedAffinity>
-8.65241

> <CNNaffinity>
-1.0000000000

$$$$



 32 36  0  0  0  0  0  0  0  0999 V2000
   -4.5120   -7.8648   56.0418 N   0  0  0  0  0  0  0  0  0  0  0  0
   -4.3269   -9.0809   56.8396 C   0  0  0  0  0  0  0  0  0  0  0  0
   -5.6686   -9.6070   57.3606 C   0  0  0  0  0  0  0  0  0  0  0  0
   -6.7116   -9.8595   56.2363 C   0  0  0  0  0  0  0  0  0  0  0  0
   -7.2411   -8.5166   55.6570 C   0  0  0  0  0  0  0  0  0  0  0  0
   -6.4292   -7.9718   54.4648 C   0  0  0  0  0  0  0  0  0  0  0  0
   -4.9028   -8.0188   54.6366 C   0  0  0  0  0  0  0  0  0  0  0  0
   -4.4325   -5.0876   55.8728 S   0  0  0  0  0  0  0  0  0  0  0  0
   -4.5258   -4.2593   57.3411 C   0  0  0  0  0  0  0  0  0  0  0  0
   -4.6070   -5.1162   58.3827 N   0  0  0  0  0  0  0  0  0  0  0  0
   -4.6112   -6.3965   58.0145 N   0  0  0  0  0  0  0  0  0  0  0  0
   -4.5235   -6.5706   56.6759 C   0  0  0  0  0  0  0  0  0  0  0  0
   -4.4647   -2.8366   57.5146 N   0  0  0  0  0  0  0  0  0  0  0  0
   -3.2429   -2.0872   57.6288 C   0  0  0  0  0  0  0  0  0  0  0  0
   -2.1564   -2.5937   57.2376 O   0  0  0  0  0  0  0  0  0  0  0  0
   -5.3144   -2.3413   57.5583 H   0  0  0  0  0  0  0  0  0  0  0  0
   -3.2447   -0.7029   58.1634 C   0  0  0  0  0  0  0  0  0  0  0  0
   -3.2437   -0.4835   59.5534 C   0  0  0  0  0  0  0  0  0  0  0  0
   -3.2530    0.8168   60.0668 C   0  0  0  0  0  0  0  0  0  0  0  0
   -3.2677    1.9115   59.2018 C   0  0  0  0  0  0  0  0  0  0  0  0
   -3.2810    1.7079   57.8207 C   0  0  0  0  0  0  0  0  0  0  0  0
   -3.2736    0.4097   57.3018 C   0  0  0  0  0  0  0  0  0  0  0  0
   -7.8961  -10.6939   56.7792 C   0  0  0  0  0  0  0  0  0  0  0  0
   -7.9953  -12.0437   56.1258 C   0  0  0  0  0  0  0  0  0  0  0  0
   -6.9777  -12.6341   55.4588 N   0  0  0  0  0  0  0  0  0  0  0  0
   -7.4169  -13.8095   55.0178 N   0  0  0  0  0  0  0  0  0  0  0  0
   -8.6930  -13.9122   55.4309 C   0  0  0  0  0  0  0  0  0  0  0  0
   -9.5583  -14.9810   55.2128 C   0  0  0  0  0  0  0  0  0  0  0  0
  -10.8519  -14.8870   55.7540 C   0  0  0  0  0  0  0  0  0  0  0  0
  -11.2360  -13.7477   56.4907 C   0  0  0  0  0  0  0  0  0  0  0  0
  -10.3170  -12.7031   56.6768 C   0  0  0  0  0  0  0  0  0  0  0  0
   -9.0829  -12.8355   56.1248 N   0  0  0  0  0  0  0  0  0  0  0  0
  8  9  1  0  0  0
  9 13  1  0  0  0
 13 14  1  0  0  0
 14 15  2  0  0  0
 14 17  1  0  0  0
 17 18  2  0  0  0
 18 19  1  0  0  0
 19 20  2  0  0  0
 20 21  1  0  0  0
 21 22  2  0  0  0
  9 10  2  0  0  0
 10 11  1  0  0  0
 11 12  2  0  0  0
 12  1  1  0  0  0
  1  2  1  0  0  0
  2  3  1  0  0  0
  3  4  1  0  0  0
  4 23  1  0  0  0
 23 24  1  0  0  0
 24 25  2  0  0  0
 25 26  1  0  0  0
 26 27  2  0  0  0
 27 28  1  0  0  0
 28 29  2  0  0  0
 29 30  1  0  0  0
 30 31  2  0  0  0
 31 32  1  0  0  0
  4  5  1  0  0  0
  5  6  1  0  0  0
  6  7  1  0  0  0
 12  8  1  0  0  0
  7  1  1  0  0  0
 22 17  1  0  0  0
 32 24  1  0  0  0
 32 27  1  0  0  0
 13 16  1  0  0  0
M  END
> <minimizedAffinity>
-9.92827

> <CNNaffinity>
-1.0000000000

$$$$



 32 36  0  0  0  0  0  0  0  0999 V2000
   -5.7829   -9.8876   55.4516 N   0  0  0  0  0  0  0  0  0  0  0  0
   -5.9248   -8.7187   54.5781 C   0  0  0  0  0  0  0  0  0  0  0  0
   -6.2491   -7.4605   55.3906 C   0  0  0  0  0  0  0  0  0  0  0  0
   -5.2147   -7.1661   56.5126 C   0  0  0  0  0  0  0  0  0  0  0  0
   -5.3502   -8.1893   57.6763 C   0  0  0  0  0  0  0  0  0  0  0  0
   -4.4784   -9.4514   57.5209 C   0  0  0  0  0  0  0  0  0  0  0  0
   -4.4949  -10.0901   56.1232 C   0  0  0  0  0  0  0  0  0  0  0  0
   -8.5341  -10.1371   55.7926 S   0  0  0  0  0  0  0  0  0  0  0  0
   -9.0773  -11.6544   56.2959 C   0  0  0  0  0  0  0  0  0  0  0  0
   -8.0467  -12.5107   56.4706 N   0  0  0  0  0  0  0  0  0  0  0  0
   -6.8599  -11.9724   56.1936 N   0  0  0  0  0  0  0  0  0  0  0  0
   -6.9345  -10.6789   55.8049 C   0  0  0  0  0  0  0  0  0  0  0  0
  -10.4370  -12.0152   56.5772 N   0  0  0  0  0  0  0  0  0  0  0  0
  -11.4091  -12.3519   55.5728 C   0  0  0  0  0  0  0  0  0  0  0  0
  -11.0291  -12.6836   54.4170 O   0  0  0  0  0  0  0  0  0  0  0  0
  -10.7230  -12.0334   57.5191 H   0  0  0  0  0  0  0  0  0  0  0  0
  -12.8594  -12.3570   55.8866 C   0  0  0  0  0  0  0  0  0  0  0  0
  -13.4544  -11.2340   56.4909 C   0  0  0  0  0  0  0  0  0  0  0  0
  -14.8183  -11.2321   56.7974 C   0  0  0  0  0  0  0  0  0  0  0  0
  -15.6027  -12.3494   56.5095 C   0  0  0  0  0  0  0  0  0  0  0  0
  -15.0227  -13.4748   55.9212 C   0  0  0  0  0  0  0  0  0  0  0  0
  -13.6588  -13.4830   55.6142 C   0  0  0  0  0  0  0  0  0  0  0  0
   -5.4066   -5.7309   57.0579 C   0  0  0  0  0  0  0  0  0  0  0  0
   -4.1740   -4.8860   56.8981 C   0  0  0  0  0  0  0  0  0  0  0  0
   -3.5139   -4.7307   55.7281 N   0  0  0  0  0  0  0  0  0  0  0  0
   -2.4819   -3.9230   55.9549 N   0  0  0  0  0  0  0  0  0  0  0  0
   -2.5387   -3.5989   57.2593 C   0  0  0  0  0  0  0  0  0  0  0  0
   -1.6667   -2.7626   57.9512 C   0  0  0  0  0  0  0  0  0  0  0  0
   -1.9251   -2.5446   59.3153 C   0  0  0  0  0  0  0  0  0  0  0  0
   -3.0334   -3.1547   59.9380 C   0  0  0  0  0  0  0  0  0  0  0  0
   -3.8767   -3.9872   59.1856 C   0  0  0  0  0  0  0  0  0  0  0  0
   -3.5790   -4.1761   57.8738 N   0  0  0  0  0  0  0  0  0  0  0  0
  8  9  1  0  0  0
  9 13  1  0  0  0
 13 14  1  0  0  0
 14 15  2  0  0  0
 14 17  1  0  0  0
 17 18  2  0  0  0
 18 19  1  0  0  0
 19 20  2  0  0  0
 20 21  1  0  0  0
 21 22  2  0  0  0
  9 10  2  0  0  0
 10 11  1  0  0  0
 11 12  2  0  0  0
 12  1  1  0  0  0
  1  2  1  0  0  0
  2  3  1  0  0  0
  3  4  1  0  0  0
  4 23  1  0  0  0
 23 24  1  0  0  0
 24 25  2  0  0  0
 25 26  1  0  0  0
 26 27  2  0  0  0
 27 28  1  0  0  0
 28 29  2  0  0  0
 29 30  1  0  0  0
 30 31  2  0  0  0
 31 32  1  0  0  0
  4  5  1  0  0  0
  5  6  1  0  0  0
  6  7  1  0  0  0
 12  8  1  0  0  0
  7  1  1  0  0  0
 22 17  1  0  0  0
 32 24  1  0  0  0
 32 27  1  0  0  0
 13 16  1  0  0  0
M  END
> <minimizedAffinity>
-9.67732

> <CNNaffinity>
-1.0000000000

$$$$



 32 36  0  0  0  0  0  0  0  0999 V2000
   -6.8739   -8.8895   54.3666 N   0  0  0  0  0  0  0  0  0  0  0  0
   -7.6799   -7.8077   54.9405 C   0  0  0  0  0  0  0  0  0  0  0  0
   -7.0800   -7.3157   56.2620 C   0  0  0  0  0  0  0  0  0  0  0  0
   -5.5966   -6.8686   56.1385 C   0  0  0  0  0  0  0  0  0  0  0  0
   -4.6603   -8.0954   55.9447 C   0  0  0  0  0  0  0  0  0  0  0  0
   -4.4236   -8.4913   54.4734 C   0  0  0  0  0  0  0  0  0  0  0  0
   -5.6830   -8.5221   53.5934 C   0  0  0  0  0  0  0  0  0  0  0  0
   -7.9561  -11.3900   53.7975 S   0  0  0  0  0  0  0  0  0  0  0  0
   -7.7226  -12.5769   54.9753 C   0  0  0  0  0  0  0  0  0  0  0  0
   -7.0436  -12.0876   56.0362 N   0  0  0  0  0  0  0  0  0  0  0  0
   -6.7064  -10.8058   55.9019 N   0  0  0  0  0  0  0  0  0  0  0  0
   -7.1227  -10.2602   54.7362 C   0  0  0  0  0  0  0  0  0  0  0  0
   -8.2176  -13.9226   54.9295 N   0  0  0  0  0  0  0  0  0  0  0  0
   -7.6210  -14.9783   54.1570 C   0  0  0  0  0  0  0  0  0  0  0  0
   -6.4325  -14.8651   53.7511 O   0  0  0  0  0  0  0  0  0  0  0  0
   -9.0178  -14.1371   55.4615 H   0  0  0  0  0  0  0  0  0  0  0  0
   -8.3701  -16.2251   53.8633 C   0  0  0  0  0  0  0  0  0  0  0  0
   -8.1043  -17.3969   54.5958 C   0  0  0  0  0  0  0  0  0  0  0  0
   -8.7992  -18.5785   54.3215 C   0  0  0  0  0  0  0  0  0  0  0  0
   -9.7625  -18.6067   53.3126 C   0  0  0  0  0  0  0  0  0  0  0  0
  -10.0275  -17.4545   52.5700 C   0  0  0  0  0  0  0  0  0  0  0  0
   -9.3342  -16.2706   52.8388 C   0  0  0  0  0  0  0  0  0  0  0  0
   -5.1658   -6.0803   57.3982 C   0  0  0  0  0  0  0  0  0  0  0  0
   -4.1161   -5.0474   57.0986 C   0  0  0  0  0  0  0  0  0  0  0  0
   -3.5901   -4.8427   55.8697 N   0  0  0  0  0  0  0  0  0  0  0  0
   -2.6994   -3.8605   55.9741 N   0  0  0  0  0  0  0  0  0  0  0  0
   -2.7058   -3.4839   57.2655 C   0  0  0  0  0  0  0  0  0  0  0  0
   -1.9394   -2.4768   57.8459 C   0  0  0  0  0  0  0  0  0  0  0  0
   -2.1203   -2.2358   59.2186 C   0  0  0  0  0  0  0  0  0  0  0  0
   -3.0514   -2.9926   59.9593 C   0  0  0  0  0  0  0  0  0  0  0  0
   -3.7952   -3.9942   59.3160 C   0  0  0  0  0  0  0  0  0  0  0  0
   -3.5765   -4.1972   57.9908 N   0  0  0  0  0  0  0  0  0  0  0  0
  8  9  1  0  0  0
  9 13  1  0  0  0
 13 14  1  0  0  0
 14 15  2  0  0  0
 14 17  1  0  0  0
 17 18  2  0  0  0
 18 19  1  0  0  0
 19 20  2  0  0  0
 20 21  1  0  0  0
 21 22  2  0  0  0
  9 10  2  0  0  0
 10 11  1  0  0  0
 11 12  2  0  0  0
 12  1  1  0  0  0
  1  2  1  0  0  0
  2  3  1  0  0  0
  3  4  1  0  0  0
  4 23  1  0  0  0
 23 24  1  0  0  0
 24 25  2  0  0  0
 25 26  1  0  0  0
 26 27  2  0  0  0
 27 28  1  0  0  0
 28 29  2  0  0  0
 29 30  1  0  0  0
 30 31  2  0  0  0
 31 32  1  0  0  0
  4  5  1  0  0  0
  5  6  1  0  0  0
  6  7  1  0  0  0
 12  8  1  0  0  0
  7  1  1  0  0  0
 22 17  1  0  0  0
 32 24  1  0  0  0
 32 27  1  0  0  0
 13 16  1  0  0  0
M  END
> <minimizedAffinity>
-9.59813

> <CNNaffinity>
-1.0000000000

$$$$



 32 36  0  0  0  0  0  0  0  0999 V2000
    8.6871  -10.6422   35.5208 N   0  0  0  0  0  0  0  0  0  0  0  0
    8.7873   -9.2059   35.7974 C   0  0  0  0  0  0  0  0  0  0  0  0
    8.5760   -8.3835   34.5218 C   0  0  0  0  0  0  0  0  0  0  0  0
    7.2353   -8.6961   33.8004 C   0  0  0  0  0  0  0  0  0  0  0  0
    7.2809  -10.0959   33.1239 C   0  0  0  0  0  0  0  0  0  0  0  0
    6.8023  -11.2544   34.0219 C   0  0  0  0  0  0  0  0  0  0  0  0
    7.3481  -11.2373   35.4584 C   0  0  0  0  0  0  0  0  0  0  0  0
   11.4512  -10.9538   35.4192 S   0  0  0  0  0  0  0  0  0  0  0  0
   12.0059  -12.3363   34.6245 C   0  0  0  0  0  0  0  0  0  0  0  0
   10.9786  -13.0694   34.1417 N   0  0  0  0  0  0  0  0  0  0  0  0
    9.7834  -12.5480   34.4147 N   0  0  0  0  0  0  0  0  0  0  0  0
    9.8491  -11.3891   35.1095 C   0  0  0  0  0  0  0  0  0  0  0  0
   13.3782  -12.6940   34.4083 N   0  0  0  0  0  0  0  0  0  0  0  0
   14.1186  -13.6022   35.2416 C   0  0  0  0  0  0  0  0  0  0  0  0
   13.5050  -14.3981   36.0032 O   0  0  0  0  0  0  0  0  0  0  0  0
   13.8432  -12.2916   33.6395 H   0  0  0  0  0  0  0  0  0  0  0  0
   15.6008  -13.6488   35.1894 C   0  0  0  0  0  0  0  0  0  0  0  0
   16.3030  -14.6130   35.9362 C   0  0  0  0  0  0  0  0  0  0  0  0
   17.6997  -14.6603   35.8997 C   0  0  0  0  0  0  0  0  0  0  0  0
   18.4116  -13.7457   35.1229 C   0  0  0  0  0  0  0  0  0  0  0  0
   17.7281  -12.7763   34.3867 C   0  0  0  0  0  0  0  0  0  0  0  0
   16.3314  -12.7232   34.4209 C   0  0  0  0  0  0  0  0  0  0  0  0
    6.9324   -7.6146   32.7362 C   0  0  0  0  0  0  0  0  0  0  0  0
    6.1800   -6.4442   33.3044 C   0  0  0  0  0  0  0  0  0  0  0  0
    5.6384   -6.4269   34.5434 N   0  0  0  0  0  0  0  0  0  0  0  0
    5.0552   -5.2430   34.7087 N   0  0  0  0  0  0  0  0  0  0  0  0
    5.2591   -4.5616   33.5669 C   0  0  0  0  0  0  0  0  0  0  0  0
    4.8375   -3.2659   33.2806 C   0  0  0  0  0  0  0  0  0  0  0  0
    5.1786   -2.7375   32.0238 C   0  0  0  0  0  0  0  0  0  0  0  0
    5.9242   -3.5051   31.1055 C   0  0  0  0  0  0  0  0  0  0  0  0
    6.3209   -4.8056   31.4539 C   0  0  0  0  0  0  0  0  0  0  0  0
    5.9573   -5.2760   32.6753 N   0  0  0  0  0  0  0  0  0  0  0  0
  8  9  1  0  0  0
  9 13  1  0  0  0
 13 14  1  0  0  0
 14 15  2  0  0  0
 14 17  1  0  0  0
 17 18  2  0  0  0
 18 19  1  0  0  0
 19 20  2  0  0  0
 20 21  1  0  0  0
 21 22  2  0  0  0
  9 10  2  0  0  0
 10 11  1  0  0  0
 11 12  2  0  0  0
 12  1  1  0  0  0
  1  2  1  0  0  0
  2  3  1  0  0  0
  3  4  1  0  0  0
  4 23  1  0  0  0
 23 24  1  0  0  0
 24 25  2  0  0  0
 25 26  1  0  0  0
 26 27  2  0  0  0
 27 28  1  0  0  0
 28 29  2  0  0  0
 29 30  1  0  0  0
 30 31  2  0  0  0
 31 32  1  0  0  0
  4  5  1  0  0  0
  5  6  1  0  0  0
  6  7  1  0  0  0
 12  8  1  0  0  0
  7  1  1  0  0  0
 22 17  1  0  0  0
 32 24  1  0  0  0
 32 27  1  0  0  0
 13 16  1  0  0  0
M  END
> <minimizedAffinity>
-9.18357

> <CNNaffinity>
-1.0000000000

$$$$



 32 36  0  0  0  0  0  0  0  0999 V2000
  -10.0798   -8.7778   55.5468 N   0  0  0  0  0  0  0  0  0  0  0  0
  -10.2963   -9.8047   54.5231 C   0  0  0  0  0  0  0  0  0  0  0  0
  -10.1678  -11.2110   55.1181 C   0  0  0  0  0  0  0  0  0  0  0  0
  -11.1099  -11.4577   56.3294 C   0  0  0  0  0  0  0  0  0  0  0  0
  -10.6241  -10.6720   57.5808 C   0  0  0  0  0  0  0  0  0  0  0  0
  -11.2092   -9.2512   57.7089 C   0  0  0  0  0  0  0  0  0  0  0  0
  -11.2087   -8.4242   56.4137 C   0  0  0  0  0  0  0  0  0  0  0  0
   -8.3112   -6.6761   55.9968 S   0  0  0  0  0  0  0  0  0  0  0  0
   -6.7097   -7.1158   56.3007 C   0  0  0  0  0  0  0  0  0  0  0  0
   -6.5524   -8.4570   56.2533 N   0  0  0  0  0  0  0  0  0  0  0  0
   -7.6836   -9.1129   55.9978 N   0  0  0  0  0  0  0  0  0  0  0  0
   -8.7505   -8.2983   55.8300 C   0  0  0  0  0  0  0  0  0  0  0  0
   -5.6133   -6.2172   56.5206 N   0  0  0  0  0  0  0  0  0  0  0  0
   -4.9931   -5.9951   57.7986 C   0  0  0  0  0  0  0  0  0  0  0  0
   -5.1515   -6.8328   58.7278 O   0  0  0  0  0  0  0  0  0  0  0  0
   -5.2629   -5.7204   55.7463 H   0  0  0  0  0  0  0  0  0  0  0  0
   -4.1294   -4.8112   58.0315 C   0  0  0  0  0  0  0  0  0  0  0  0
   -3.6924   -4.0319   56.9443 C   0  0  0  0  0  0  0  0  0  0  0  0
   -2.8723   -2.9191   57.1527 C   0  0  0  0  0  0  0  0  0  0  0  0
   -2.4754   -2.5734   58.4449 C   0  0  0  0  0  0  0  0  0  0  0  0
   -2.8918   -3.3450   59.5314 C   0  0  0  0  0  0  0  0  0  0  0  0
   -3.7105   -4.4600   59.3286 C   0  0  0  0  0  0  0  0  0  0  0  0
  -11.1783  -12.9679   56.6586 C   0  0  0  0  0  0  0  0  0  0  0  0
  -11.6174  -13.7932   55.4818 C   0  0  0  0  0  0  0  0  0  0  0  0
  -12.7498  -13.5611   54.7799 N   0  0  0  0  0  0  0  0  0  0  0  0
  -12.8185  -14.4762   53.8172 N   0  0  0  0  0  0  0  0  0  0  0  0
  -11.7219  -15.2441   53.9504 C   0  0  0  0  0  0  0  0  0  0  0  0
  -11.3590  -16.3276   53.1549 C   0  0  0  0  0  0  0  0  0  0  0  0
  -10.1530  -16.9805   53.4621 C   0  0  0  0  0  0  0  0  0  0  0  0
   -9.3540  -16.5355   54.5354 C   0  0  0  0  0  0  0  0  0  0  0  0
   -9.7743  -15.4360   55.3000 C   0  0  0  0  0  0  0  0  0  0  0  0
  -10.9526  -14.8455   54.9713 N   0  0  0  0  0  0  0  0  0  0  0  0
  8  9  1  0  0  0
  9 13  1  0  0  0
 13 14  1  0  0  0
 14 15  2  0  0  0
 14 17  1  0  0  0
 17 18  2  0  0  0
 18 19  1  0  0  0
 19 20  2  0  0  0
 20 21  1  0  0  0
 21 22  2  0  0  0
  9 10  2  0  0  0
 10 11  1  0  0  0
 11 12  2  0  0  0
 12  1  1  0  0  0
  1  2  1  0  0  0
  2  3  1  0  0  0
  3  4  1  0  0  0
  4 23  1  0  0  0
 23 24  1  0  0  0
 24 25  2  0  0  0
 25 26  1  0  0  0
 26 27  2  0  0  0
 27 28  1  0  0  0
 28 29  2  0  0  0
 29 30  1  0  0  0
 30 31  2  0  0  0
 31 32  1  0  0  0
  4  5  1  0  0  0
  5  6  1  0  0  0
  6  7  1  0  0  0
 12  8  1  0  0  0
  7  1  1  0  0  0
 22 17  1  0  0  0
 32 24  1  0  0  0
 32 27  1  0  0  0
 13 16  1  0  0  0
M  END
> <minimizedAffinity>
-8.99052

> <CNNaffinity>
-1.0000000000

$$$$



 32 36  0  0  0  0  0  0  0  0999 V2000
    6.8155   -9.9338   35.2035 N   0  0  0  0  0  0  0  0  0  0  0  0
    6.6762  -11.2097   34.4951 C   0  0  0  0  0  0  0  0  0  0  0  0
    8.0473  -11.7974   34.1445 C   0  0  0  0  0  0  0  0  0  0  0  0
    8.9788  -11.9697   35.3767 C   0  0  0  0  0  0  0  0  0  0  0  0
    9.4836  -10.5907   35.8895 C   0  0  0  0  0  0  0  0  0  0  0  0
    8.5797   -9.9358   36.9532 C   0  0  0  0  0  0  0  0  0  0  0  0
    7.0744   -9.9747   36.6466 C   0  0  0  0  0  0  0  0  0  0  0  0
    6.6509   -7.1568   35.1085 S   0  0  0  0  0  0  0  0  0  0  0  0
    6.9861   -6.4518   33.6114 C   0  0  0  0  0  0  0  0  0  0  0  0
    7.2680   -7.3897   32.6803 N   0  0  0  0  0  0  0  0  0  0  0  0
    7.2329   -8.6336   33.1560 N   0  0  0  0  0  0  0  0  0  0  0  0
    6.9129   -8.6977   34.4688 C   0  0  0  0  0  0  0  0  0  0  0  0
    6.9279   -5.0518   33.3041 N   0  0  0  0  0  0  0  0  0  0  0  0
    5.7228   -4.3495   32.9551 C   0  0  0  0  0  0  0  0  0  0  0  0
    4.6001   -4.8503   33.2362 O   0  0  0  0  0  0  0  0  0  0  0  0
    7.7675   -4.5386   33.3341 H   0  0  0  0  0  0  0  0  0  0  0  0
    5.7779   -3.0173   32.3039 C   0  0  0  0  0  0  0  0  0  0  0  0
    4.9403   -1.9785   32.7506 C   0  0  0  0  0  0  0  0  0  0  0  0
    4.9794   -0.7222   32.1387 C   0  0  0  0  0  0  0  0  0  0  0  0
    5.8495   -0.4886   31.0734 C   0  0  0  0  0  0  0  0  0  0  0  0
    6.6773   -1.5138   30.6123 C   0  0  0  0  0  0  0  0  0  0  0  0
    6.6410   -2.7728   31.2193 C   0  0  0  0  0  0  0  0  0  0  0  0
   10.1886  -12.8641   35.0154 C   0  0  0  0  0  0  0  0  0  0  0  0
   10.5871  -13.7745   36.1427 C   0  0  0  0  0  0  0  0  0  0  0  0
    9.8837  -13.9044   37.2904 N   0  0  0  0  0  0  0  0  0  0  0  0
   10.5222  -14.7870   38.0534 N   0  0  0  0  0  0  0  0  0  0  0  0
   11.5998  -15.1803   37.3507 C   0  0  0  0  0  0  0  0  0  0  0  0
   12.5608  -16.1078   37.7442 C   0  0  0  0  0  0  0  0  0  0  0  0
   13.5997  -16.3862   36.8396 C   0  0  0  0  0  0  0  0  0  0  0  0
   13.6449  -15.7438   35.5852 C   0  0  0  0  0  0  0  0  0  0  0  0
   12.6452  -14.8185   35.2465 C   0  0  0  0  0  0  0  0  0  0  0  0
   11.6685  -14.5746   36.1586 N   0  0  0  0  0  0  0  0  0  0  0  0
  8  9  1  0  0  0
  9 13  1  0  0  0
 13 14  1  0  0  0
 14 15  2  0  0  0
 14 17  1  0  0  0
 17 18  2  0  0  0
 18 19  1  0  0  0
 19 20  2  0  0  0
 20 21  1  0  0  0
 21 22  2  0  0  0
  9 10  2  0  0  0
 10 11  1  0  0  0
 11 12  2  0  0  0
 12  1  1  0  0  0
  1  2  1  0  0  0
  2  3  1  0  0  0
  3  4  1  0  0  0
  4 23  1  0  0  0
 23 24  1  0  0  0
 24 25  2  0  0  0
 25 26  1  0  0  0
 26 27  2  0  0  0
 27 28  1  0  0  0
 28 29  2  0  0  0
 29 30  1  0  0  0
 30 31  2  0  0  0
 31 32  1  0  0  0
  4  5  1  0  0  0
  5  6  1  0  0  0
  6  7  1  0  0  0
 12  8  1  0  0  0
  7  1  1  0  0  0
 22 17  1  0  0  0
 32 24  1  0  0  0
 32 27  1  0  0  0
 13 16  1  0  0  0
M  END
> <minimizedAffinity>
-8.89615

> <CNNaffinity>
-1.0000000000

$$$$



 32 36  0  0  0  0  0  0  0  0999 V2000
   -2.6827   -2.8604   57.5210 N   0  0  0  0  0  0  0  0  0  0  0  0
   -3.0541   -1.7254   56.6705 C   0  0  0  0  0  0  0  0  0  0  0  0
   -3.9710   -0.7528   57.4198 C   0  0  0  0  0  0  0  0  0  0  0  0
   -3.3680   -0.2423   58.7582 C   0  0  0  0  0  0  0  0  0  0  0  0
   -3.3614   -1.3687   59.8308 C   0  0  0  0  0  0  0  0  0  0  0  0
   -2.0806   -2.2269   59.8469 C   0  0  0  0  0  0  0  0  0  0  0  0
   -1.5767   -2.6765   58.4665 C   0  0  0  0  0  0  0  0  0  0  0  0
   -4.1813   -4.8260   56.2411 S   0  0  0  0  0  0  0  0  0  0  0  0
   -4.9067   -5.9697   57.2492 C   0  0  0  0  0  0  0  0  0  0  0  0
   -4.6415   -5.7151   58.5495 N   0  0  0  0  0  0  0  0  0  0  0  0
   -3.8673   -4.6463   58.7312 N   0  0  0  0  0  0  0  0  0  0  0  0
   -3.5169   -4.0344   57.5768 C   0  0  0  0  0  0  0  0  0  0  0  0
   -5.7549   -7.0485   56.8311 N   0  0  0  0  0  0  0  0  0  0  0  0
   -7.1346   -6.8946   56.4569 C   0  0  0  0  0  0  0  0  0  0  0  0
   -7.5775   -5.7560   56.1447 O   0  0  0  0  0  0  0  0  0  0  0  0
   -5.3671   -7.9528   56.7983 H   0  0  0  0  0  0  0  0  0  0  0  0
   -8.0419   -8.0669   56.3903 C   0  0  0  0  0  0  0  0  0  0  0  0
   -7.5097   -9.3670   56.3069 C   0  0  0  0  0  0  0  0  0  0  0  0
   -8.3561  -10.4774   56.2360 C   0  0  0  0  0  0  0  0  0  0  0  0
   -9.7406  -10.3045   56.2430 C   0  0  0  0  0  0  0  0  0  0  0  0
  -10.2819   -9.0195   56.3131 C   0  0  0  0  0  0  0  0  0  0  0  0
   -9.4400   -7.9054   56.3823 C   0  0  0  0  0  0  0  0  0  0  0  0
   -4.1734    0.9701   59.2831 C   0  0  0  0  0  0  0  0  0  0  0  0
   -3.3103    1.9613   60.0119 C   0  0  0  0  0  0  0  0  0  0  0  0
   -3.3876    2.1924   61.3421 N   0  0  0  0  0  0  0  0  0  0  0  0
   -2.4841    3.1219   61.6400 N   0  0  0  0  0  0  0  0  0  0  0  0
   -1.8712    3.4336   60.4838 C   0  0  0  0  0  0  0  0  0  0  0  0
   -0.8426    4.3548   60.3053 C   0  0  0  0  0  0  0  0  0  0  0  0
   -0.3319    4.5105   59.0053 C   0  0  0  0  0  0  0  0  0  0  0  0
   -0.8519    3.7490   57.9385 C   0  0  0  0  0  0  0  0  0  0  0  0
   -1.8889    2.8352   58.1831 C   0  0  0  0  0  0  0  0  0  0  0  0
   -2.3567    2.7289   59.4539 N   0  0  0  0  0  0  0  0  0  0  0  0
  8  9  1  0  0  0
  9 13  1  0  0  0
 13 14  1  0  0  0
 14 15  2  0  0  0
 14 17  1  0  0  0
 17 18  2  0  0  0
 18 19  1  0  0  0
 19 20  2  0  0  0
 20 21  1  0  0  0
 21 22  2  0  0  0
  9 10  2  0  0  0
 10 11  1  0  0  0
 11 12  2  0  0  0
 12  1  1  0  0  0
  1  2  1  0  0  0
  2  3  1  0  0  0
  3  4  1  0  0  0
  4 23  1  0  0  0
 23 24  1  0  0  0
 24 25  2  0  0  0
 25 26  1  0  0  0
 26 27  2  0  0  0
 27 28  1  0  0  0
 28 29  2  0  0  0
 29 30  1  0  0  0
 30 31  2  0  0  0
 31 32  1  0  0  0
  4  5  1  0  0  0
  5  6  1  0  0  0
  6  7  1  0  0  0
 12  8  1  0  0  0
  7  1  1  0  0  0
 22 17  1  0  0  0
 32 24  1  0  0  0
 32 27  1  0  0  0
 13 16  1  0  0  0
M  END
> <minimizedAffinity>
-8.77607

> <CNNaffinity>
-1.0000000000

$$$$



 32 36  0  0  0  0  0  0  0  0999 V2000
   10.8495  -13.2756   36.0558 N   0  0  0  0  0  0  0  0  0  0  0  0
   10.1832  -12.7179   37.2367 C   0  0  0  0  0  0  0  0  0  0  0  0
    9.3715  -11.4701   36.8729 C   0  0  0  0  0  0  0  0  0  0  0  0
    8.3349  -11.7158   35.7412 C   0  0  0  0  0  0  0  0  0  0  0  0
    9.0429  -11.8944   34.3678 C   0  0  0  0  0  0  0  0  0  0  0  0
    9.4165  -13.3511   34.0273 C   0  0  0  0  0  0  0  0  0  0  0  0
   10.0656  -14.1448   35.1720 C   0  0  0  0  0  0  0  0  0  0  0  0
   13.4719  -13.7936   35.2799 S   0  0  0  0  0  0  0  0  0  0  0  0
   14.4295  -12.4368   34.9751 C   0  0  0  0  0  0  0  0  0  0  0  0
   13.7405  -11.2936   35.1854 N   0  0  0  0  0  0  0  0  0  0  0  0
   12.4794  -11.4987   35.5628 N   0  0  0  0  0  0  0  0  0  0  0  0
   12.1558  -12.8081   35.6658 C   0  0  0  0  0  0  0  0  0  0  0  0
   15.8150  -12.4460   34.6036 N   0  0  0  0  0  0  0  0  0  0  0  0
   16.8575  -13.0579   35.3821 C   0  0  0  0  0  0  0  0  0  0  0  0
   16.5655  -13.9169   36.2580 O   0  0  0  0  0  0  0  0  0  0  0  0
   16.0686  -12.0047   33.7608 H   0  0  0  0  0  0  0  0  0  0  0  0
   18.2836  -12.7254   35.1422 C   0  0  0  0  0  0  0  0  0  0  0  0
   19.2515  -13.7465   35.1174 C   0  0  0  0  0  0  0  0  0  0  0  0
   20.5986  -13.4427   34.8996 C   0  0  0  0  0  0  0  0  0  0  0  0
   20.9962  -12.1190   34.7088 C   0  0  0  0  0  0  0  0  0  0  0  0
   20.0480  -11.0949   34.7431 C   0  0  0  0  0  0  0  0  0  0  0  0
   18.6997  -11.3929   34.9623 C   0  0  0  0  0  0  0  0  0  0  0  0
    7.3363  -10.5366   35.6613 C   0  0  0  0  0  0  0  0  0  0  0  0
    5.9464  -10.9318   36.0743 C   0  0  0  0  0  0  0  0  0  0  0  0
    5.5673  -12.2067   36.3188 N   0  0  0  0  0  0  0  0  0  0  0  0
    4.2815  -12.1837   36.6581 N   0  0  0  0  0  0  0  0  0  0  0  0
    3.9058  -10.8926   36.6179 C   0  0  0  0  0  0  0  0  0  0  0  0
    2.6444  -10.3801   36.9090 C   0  0  0  0  0  0  0  0  0  0  0  0
    2.4759   -8.9876   36.8214 C   0  0  0  0  0  0  0  0  0  0  0  0
    3.5573   -8.1596   36.4564 C   0  0  0  0  0  0  0  0  0  0  0  0
    4.8056   -8.7370   36.1759 C   0  0  0  0  0  0  0  0  0  0  0  0
    4.9156  -10.0881   36.2631 N   0  0  0  0  0  0  0  0  0  0  0  0
  8  9  1  0  0  0
  9 13  1  0  0  0
 13 14  1  0  0  0
 14 15  2  0  0  0
 14 17  1  0  0  0
 17 18  2  0  0  0
 18 19  1  0  0  0
 19 20  2  0  0  0
 20 21  1  0  0  0
 21 22  2  0  0  0
  9 10  2  0  0  0
 10 11  1  0  0  0
 11 12  2  0  0  0
 12  1  1  0  0  0
  1  2  1  0  0  0
  2  3  1  0  0  0
  3  4  1  0  0  0
  4 23  1  0  0  0
 23 24  1  0  0  0
 24 25  2  0  0  0
 25 26  1  0  0  0
 26 27  2  0  0  0
 27 28  1  0  0  0
 28 29  2  0  0  0
 29 30  1  0  0  0
 30 31  2  0  0  0
 31 32  1  0  0  0
  4  5  1  0  0  0
  5  6  1  0  0  0
  6  7  1  0  0  0
 12  8  1  0  0  0
  7  1  1  0  0  0
 22 17  1  0  0  0
 32 24  1  0  0  0
 32 27  1  0  0  0
 13 16  1  0  0  0
M  END
> <minimizedAffinity>
-8.65044

> <CNNaffinity>
-1.0000000000

$$$$



 32 36  0  0  0  0  0  0  0  0999 V2000
   -8.8867   -9.5163   56.1096 N   0  0  0  0  0  0  0  0  0  0  0  0
   -9.7279   -9.9676   57.2223 C   0  0  0  0  0  0  0  0  0  0  0  0
  -11.1184   -9.3268   57.1564 C   0  0  0  0  0  0  0  0  0  0  0  0
  -11.8463   -9.5683   55.8046 C   0  0  0  0  0  0  0  0  0  0  0  0
  -11.1938   -8.7349   54.6649 C   0  0  0  0  0  0  0  0  0  0  0  0
  -10.0551   -9.4575   53.9175 C   0  0  0  0  0  0  0  0  0  0  0  0
   -9.0433  -10.1873   54.8149 C   0  0  0  0  0  0  0  0  0  0  0  0
   -6.4199   -8.2627   56.4111 S   0  0  0  0  0  0  0  0  0  0  0  0
   -6.4528   -6.5751   56.4463 C   0  0  0  0  0  0  0  0  0  0  0  0
   -7.7158   -6.1073   56.3371 N   0  0  0  0  0  0  0  0  0  0  0  0
   -8.6271   -7.0710   56.2122 N   0  0  0  0  0  0  0  0  0  0  0  0
   -8.0982   -8.3159   56.2307 C   0  0  0  0  0  0  0  0  0  0  0  0
   -5.3229   -5.7109   56.6316 N   0  0  0  0  0  0  0  0  0  0  0  0
   -4.6754   -5.4855   57.8954 C   0  0  0  0  0  0  0  0  0  0  0  0
   -4.8481   -6.2987   58.8436 O   0  0  0  0  0  0  0  0  0  0  0  0
   -4.9677   -5.2419   55.8423 H   0  0  0  0  0  0  0  0  0  0  0  0
   -3.7679   -4.3279   58.0915 C   0  0  0  0  0  0  0  0  0  0  0  0
   -3.6263   -3.3629   57.0771 C   0  0  0  0  0  0  0  0  0  0  0  0
   -2.7681   -2.2728   57.2492 C   0  0  0  0  0  0  0  0  0  0  0  0
   -2.0391   -2.1348   58.4308 C   0  0  0  0  0  0  0  0  0  0  0  0
   -2.1610   -3.0913   59.4403 C   0  0  0  0  0  0  0  0  0  0  0  0
   -3.0164   -4.1844   59.2728 C   0  0  0  0  0  0  0  0  0  0  0  0
  -13.3437   -9.1986   55.9266 C   0  0  0  0  0  0  0  0  0  0  0  0
  -14.2289  -10.4096   56.0195 C   0  0  0  0  0  0  0  0  0  0  0  0
  -13.7841  -11.6796   55.8849 N   0  0  0  0  0  0  0  0  0  0  0  0
  -14.8313  -12.4874   56.0252 N   0  0  0  0  0  0  0  0  0  0  0  0
  -15.8924  -11.6909   56.2479 C   0  0  0  0  0  0  0  0  0  0  0  0
  -17.2075  -12.0928   56.4659 C   0  0  0  0  0  0  0  0  0  0  0  0
  -18.1611  -11.0870   56.6987 C   0  0  0  0  0  0  0  0  0  0  0  0
  -17.7781   -9.7300   56.7122 C   0  0  0  0  0  0  0  0  0  0  0  0
  -16.4354   -9.3888   56.4866 C   0  0  0  0  0  0  0  0  0  0  0  0
  -15.5534  -10.3956   56.2549 N   0  0  0  0  0  0  0  0  0  0  0  0
  8  9  1  0  0  0
  9 13  1  0  0  0
 13 14  1  0  0  0
 14 15  2  0  0  0
 14 17  1  0  0  0
 17 18  2  0  0  0
 18 19  1  0  0  0
 19 20  2  0  0  0
 20 21  1  0  0  0
 21 22  2  0  0  0
  9 10  2  0  0  0
 10 11  1  0  0  0
 11 12  2  0  0  0
 12  1  1  0  0  0
  1  2  1  0  0  0
  2  3  1  0  0  0
  3  4  1  0  0  0
  4 23  1  0  0  0
 23 24  1  0  0  0
 24 25  2  0  0  0
 25 26  1  0  0  0
 26 27  2  0  0  0
 27 28  1  0  0  0
 28 29  2  0  0  0
 29 30  1  0  0  0
 30 31  2  0  0  0
 31 32  1  0  0  0
  4  5  1  0  0  0
  5  6  1  0  0  0
  6  7  1  0  0  0
 12  8  1  0  0  0
  7  1  1  0  0  0
 22 17  1  0  0  0
 32 24  1  0  0  0
 32 27  1  0  0  0
 13 16  1  0  0  0
M  END
> <minimizedAffinity>
-8.60766

> <CNNaffinity>
-1.0000000000

$$$$



 32 36  0  0  0  0  0  0  0  0999 V2000
   -7.4822   -9.8534   56.1284 N   0  0  0  0  0  0  0  0  0  0  0  0
   -6.8877   -8.9287   55.1543 C   0  0  0  0  0  0  0  0  0  0  0  0
   -6.5217   -7.6106   55.8497 C   0  0  0  0  0  0  0  0  0  0  0  0
   -5.1232   -7.6024   56.5236 C   0  0  0  0  0  0  0  0  0  0  0  0
   -4.6675   -8.9663   57.1208 C   0  0  0  0  0  0  0  0  0  0  0  0
   -5.7526   -9.7392   57.8947 C   0  0  0  0  0  0  0  0  0  0  0  0
   -6.5828  -10.6465   56.9753 C   0  0  0  0  0  0  0  0  0  0  0  0
   -9.9845  -11.0874   56.1669 S   0  0  0  0  0  0  0  0  0  0  0  0
  -11.2552  -10.1436   56.7387 C   0  0  0  0  0  0  0  0  0  0  0  0
  -10.8362   -8.9104   57.0982 N   0  0  0  0  0  0  0  0  0  0  0  0
   -9.5307   -8.7252   56.9097 N   0  0  0  0  0  0  0  0  0  0  0  0
   -8.8990   -9.8116   56.4074 C   0  0  0  0  0  0  0  0  0  0  0  0
  -12.6043  -10.6098   56.8743 N   0  0  0  0  0  0  0  0  0  0  0  0
  -13.5897  -10.4968   55.8319 C   0  0  0  0  0  0  0  0  0  0  0  0
  -13.2261  -10.2716   54.6453 O   0  0  0  0  0  0  0  0  0  0  0  0
  -12.8702  -11.0288   57.7245 H   0  0  0  0  0  0  0  0  0  0  0  0
  -15.0358  -10.6584   56.1251 C   0  0  0  0  0  0  0  0  0  0  0  0
  -15.8380   -9.5268   56.3667 C   0  0  0  0  0  0  0  0  0  0  0  0
  -17.1972   -9.6705   56.6623 C   0  0  0  0  0  0  0  0  0  0  0  0
  -17.7685  -10.9429   56.7315 C   0  0  0  0  0  0  0  0  0  0  0  0
  -16.9834  -12.0743   56.5011 C   0  0  0  0  0  0  0  0  0  0  0  0
  -15.6237  -11.9371   56.2039 C   0  0  0  0  0  0  0  0  0  0  0  0
   -5.0637   -6.4689   57.5735 C   0  0  0  0  0  0  0  0  0  0  0  0
   -4.1078   -5.3799   57.1751 C   0  0  0  0  0  0  0  0  0  0  0  0
   -3.6050   -5.2422   55.9255 N   0  0  0  0  0  0  0  0  0  0  0  0
   -2.7942   -4.1875   55.9321 N   0  0  0  0  0  0  0  0  0  0  0  0
   -2.8180   -3.7056   57.1882 C   0  0  0  0  0  0  0  0  0  0  0  0
   -2.1069   -2.6122   57.6744 C   0  0  0  0  0  0  0  0  0  0  0  0
   -2.2547   -2.2974   59.0353 C   0  0  0  0  0  0  0  0  0  0  0  0
   -3.0928   -3.0753   59.8598 C   0  0  0  0  0  0  0  0  0  0  0  0
   -3.7898   -4.1616   59.3083 C   0  0  0  0  0  0  0  0  0  0  0  0
   -3.6210   -4.4220   57.9859 N   0  0  0  0  0  0  0  0  0  0  0  0
  8  9  1  0  0  0
  9 13  1  0  0  0
 13 14  1  0  0  0
 14 15  2  0  0  0
 14 17  1  0  0  0
 17 18  2  0  0  0
 18 19  1  0  0  0
 19 20  2  0  0  0
 20 21  1  0  0  0
 21 22  2  0  0  0
  9 10  2  0  0  0
 10 11  1  0  0  0
 11 12  2  0  0  0
 12  1  1  0  0  0
  1  2  1  0  0  0
  2  3  1  0  0  0
  3  4  1  0  0  0
  4 23  1  0  0  0
 23 24  1  0  0  0
 24 25  2  0  0  0
 25 26  1  0  0  0
 26 27  2  0  0  0
 27 28  1  0  0  0
 28 29  2  0  0  0
 29 30  1  0  0  0
 30 31  2  0  0  0
 31 32  1  0  0  0
  4  5  1  0  0  0
  5  6  1  0  0  0
  6  7  1  0  0  0
 12  8  1  0  0  0
  7  1  1  0  0  0
 22 17  1  0  0  0
 32 24  1  0  0  0
 32 27  1  0  0  0
 13 16  1  0  0  0
M  END
> <minimizedAffinity>
-9.25749

> <CNNaffinity>
-1.0000000000

$$$$



 32 36  0  0  0  0  0  0  0  0999 V2000
   -3.1060   -3.9092   57.8543 N   0  0  0  0  0  0  0  0  0  0  0  0
   -2.4592   -2.8170   57.1152 C   0  0  0  0  0  0  0  0  0  0  0  0
   -3.2804   -1.5301   57.2715 C   0  0  0  0  0  0  0  0  0  0  0  0
   -2.9472   -0.7013   58.5412 C   0  0  0  0  0  0  0  0  0  0  0  0
   -2.5392   -1.5372   59.7899 C   0  0  0  0  0  0  0  0  0  0  0  0
   -3.3922   -2.7946   60.0452 C   0  0  0  0  0  0  0  0  0  0  0  0
   -2.8523   -4.0213   59.2959 C   0  0  0  0  0  0  0  0  0  0  0  0
   -4.7991   -6.1271   57.8647 S   0  0  0  0  0  0  0  0  0  0  0  0
   -5.8242   -6.2693   56.5375 C   0  0  0  0  0  0  0  0  0  0  0  0
   -5.6527   -5.2516   55.6654 N   0  0  0  0  0  0  0  0  0  0  0  0
   -4.7154   -4.3861   56.0483 N   0  0  0  0  0  0  0  0  0  0  0  0
   -4.1400   -4.7029   57.2315 C   0  0  0  0  0  0  0  0  0  0  0  0
   -6.7937   -7.3137   56.3796 N   0  0  0  0  0  0  0  0  0  0  0  0
   -8.2101   -7.0739   56.2991 C   0  0  0  0  0  0  0  0  0  0  0  0
   -8.6376   -5.9146   56.0460 O   0  0  0  0  0  0  0  0  0  0  0  0
   -6.4736   -8.2431   56.3232 H   0  0  0  0  0  0  0  0  0  0  0  0
   -9.1851   -8.1762   56.4928 C   0  0  0  0  0  0  0  0  0  0  0  0
  -10.5368   -7.8849   56.7578 C   0  0  0  0  0  0  0  0  0  0  0  0
  -11.4587   -8.9166   56.9603 C   0  0  0  0  0  0  0  0  0  0  0  0
  -11.0415  -10.2485   56.9122 C   0  0  0  0  0  0  0  0  0  0  0  0
   -9.7027  -10.5520   56.6573 C   0  0  0  0  0  0  0  0  0  0  0  0
   -8.7761   -9.5246   56.4528 C   0  0  0  0  0  0  0  0  0  0  0  0
   -4.1187    0.2586   58.8522 C   0  0  0  0  0  0  0  0  0  0  0  0
   -3.6477    1.5386   59.4830 C   0  0  0  0  0  0  0  0  0  0  0  0
   -3.7698    1.8146   60.8029 N   0  0  0  0  0  0  0  0  0  0  0  0
   -3.2591    3.0255   61.0097 N   0  0  0  0  0  0  0  0  0  0  0  0
   -2.8384    3.4636   59.8091 C   0  0  0  0  0  0  0  0  0  0  0  0
   -2.2480    4.6931   59.5313 C   0  0  0  0  0  0  0  0  0  0  0  0
   -1.9112    4.9620   58.1944 C   0  0  0  0  0  0  0  0  0  0  0  0
   -2.1742    4.0105   57.1879 C   0  0  0  0  0  0  0  0  0  0  0  0
   -2.7650    2.7849   57.5329 C   0  0  0  0  0  0  0  0  0  0  0  0
   -3.0654    2.5675   58.8396 N   0  0  0  0  0  0  0  0  0  0  0  0
  8  9  1  0  0  0
  9 13  1  0  0  0
 13 14  1  0  0  0
 14 15  2  0  0  0
 14 17  1  0  0  0
 17 18  2  0  0  0
 18 19  1  0  0  0
 19 20  2  0  0  0
 20 21  1  0  0  0
 21 22  2  0  0  0
  9 10  2  0  0  0
 10 11  1  0  0  0
 11 12  2  0  0  0
 12  1  1  0  0  0
  1  2  1  0  0  0
  2  3  1  0  0  0
  3  4  1  0  0  0
  4 23  1  0  0  0
 23 24  1  0  0  0
 24 25  2  0  0  0
 25 26  1  0  0  0
 26 27  2  0  0  0
 27 28  1  0  0  0
 28 29  2  0  0  0
 29 30  1  0  0  0
 30 31  2  0  0  0
 31 32  1  0  0  0
  4  5  1  0  0  0
  5  6  1  0  0  0
  6  7  1  0  0  0
 12  8  1  0  0  0
  7  1  1  0  0  0
 22 17  1  0  0  0
 32 24  1  0  0  0
 32 27  1  0  0  0
 13 16  1  0  0  0
M  END
> <minimizedAffinity>
-9.24281

> <CNNaffinity>
-1.0000000000

$$$$



 32 36  0  0  0  0  0  0  0  0999 V2000
    6.4484   -8.5484   34.8700 N   0  0  0  0  0  0  0  0  0  0  0  0
    6.7218   -9.8388   34.2237 C   0  0  0  0  0  0  0  0  0  0  0  0
    8.2290  -10.1251   34.2587 C   0  0  0  0  0  0  0  0  0  0  0  0
    8.7261  -10.8125   35.5589 C   0  0  0  0  0  0  0  0  0  0  0  0
    7.9670  -10.4046   36.8558 C   0  0  0  0  0  0  0  0  0  0  0  0
    7.6672   -8.8997   36.9950 C   0  0  0  0  0  0  0  0  0  0  0  0
    6.3370   -8.5116   36.3333 C   0  0  0  0  0  0  0  0  0  0  0  0
    6.3548   -5.7622   34.7516 S   0  0  0  0  0  0  0  0  0  0  0  0
    6.5790   -5.0885   33.2258 C   0  0  0  0  0  0  0  0  0  0  0  0
    6.7772   -6.0392   32.2864 N   0  0  0  0  0  0  0  0  0  0  0  0
    6.7398   -7.2767   32.7778 N   0  0  0  0  0  0  0  0  0  0  0  0
    6.5204   -7.3204   34.1126 C   0  0  0  0  0  0  0  0  0  0  0  0
    6.6068   -3.6786   32.9664 N   0  0  0  0  0  0  0  0  0  0  0  0
    5.4972   -2.9547   32.4050 C   0  0  0  0  0  0  0  0  0  0  0  0
    4.3448   -3.4674   32.4112 O   0  0  0  0  0  0  0  0  0  0  0  0
    7.4274   -3.1800   33.1837 H   0  0  0  0  0  0  0  0  0  0  0  0
    5.6806   -1.5988   31.8296 C   0  0  0  0  0  0  0  0  0  0  0  0
    5.1803   -0.4706   32.5071 C   0  0  0  0  0  0  0  0  0  0  0  0
    5.3318    0.8088   31.9635 C   0  0  0  0  0  0  0  0  0  0  0  0
    5.9730    0.9763   30.7342 C   0  0  0  0  0  0  0  0  0  0  0  0
    6.4678   -0.1343   30.0477 C   0  0  0  0  0  0  0  0  0  0  0  0
    6.3204   -1.4163   30.5868 C   0  0  0  0  0  0  0  0  0  0  0  0
   10.2520  -10.6068   35.6996 C   0  0  0  0  0  0  0  0  0  0  0  0
   11.0287  -11.8060   35.2343 C   0  0  0  0  0  0  0  0  0  0  0  0
   10.6502  -13.0842   35.4717 N   0  0  0  0  0  0  0  0  0  0  0  0
   11.5656  -13.8823   34.9287 N   0  0  0  0  0  0  0  0  0  0  0  0
   12.4853  -13.0725   34.3732 C   0  0  0  0  0  0  0  0  0  0  0  0
   13.6415  -13.4617   33.7028 C   0  0  0  0  0  0  0  0  0  0  0  0
   14.4857  -12.4457   33.2251 C   0  0  0  0  0  0  0  0  0  0  0  0
   14.1574  -11.0903   33.4320 C   0  0  0  0  0  0  0  0  0  0  0  0
   12.9727  -10.7617   34.1092 C   0  0  0  0  0  0  0  0  0  0  0  0
   12.1848  -11.7785   34.5454 N   0  0  0  0  0  0  0  0  0  0  0  0
  8  9  1  0  0  0
  9 13  1  0  0  0
 13 14  1  0  0  0
 14 15  2  0  0  0
 14 17  1  0  0  0
 17 18  2  0  0  0
 18 19  1  0  0  0
 19 20  2  0  0  0
 20 21  1  0  0  0
 21 22  2  0  0  0
  9 10  2  0  0  0
 10 11  1  0  0  0
 11 12  2  0  0  0
 12  1  1  0  0  0
  1  2  1  0  0  0
  2  3  1  0  0  0
  3  4  1  0  0  0
  4 23  1  0  0  0
 23 24  1  0  0  0
 24 25  2  0  0  0
 25 26  1  0  0  0
 26 27  2  0  0  0
 27 28  1  0  0  0
 28 29  2  0  0  0
 29 30  1  0  0  0
 30 31  2  0  0  0
 31 32  1  0  0  0
  4  5  1  0  0  0
  5  6  1  0  0  0
  6  7  1  0  0  0
 12  8  1  0  0  0
  7  1  1  0  0  0
 22 17  1  0  0  0
 32 24  1  0  0  0
 32 27  1  0  0  0
 13 16  1  0  0  0
M  END
> <minimizedAffinity>
-9.15826

> <CNNaffinity>
-1.0000000000

$$$$



 32 36  0  0  0  0  0  0  0  0999 V2000
   -8.6246   -7.8557   54.7652 N   0  0  0  0  0  0  0  0  0  0  0  0
   -8.6348   -6.8565   55.8419 C   0  0  0  0  0  0  0  0  0  0  0  0
   -7.2917   -6.8826   56.5837 C   0  0  0  0  0  0  0  0  0  0  0  0
   -6.1842   -6.0013   55.9459 C   0  0  0  0  0  0  0  0  0  0  0  0
   -6.2294   -5.9014   54.3927 C   0  0  0  0  0  0  0  0  0  0  0  0
   -6.5026   -7.2275   53.6574 C   0  0  0  0  0  0  0  0  0  0  0  0
   -8.0049   -7.4938   53.4845 C   0  0  0  0  0  0  0  0  0  0  0  0
   -8.6533  -10.5497   54.0393 S   0  0  0  0  0  0  0  0  0  0  0  0
   -9.4251  -11.5876   55.1160 C   0  0  0  0  0  0  0  0  0  0  0  0
   -9.9124  -10.9219   56.1860 N   0  0  0  0  0  0  0  0  0  0  0  0
   -9.6805   -9.6111   56.1372 N   0  0  0  0  0  0  0  0  0  0  0  0
   -8.9999   -9.2246   55.0332 C   0  0  0  0  0  0  0  0  0  0  0  0
   -9.5091  -13.0084   54.9418 N   0  0  0  0  0  0  0  0  0  0  0  0
   -8.3983  -13.8988   55.1502 C   0  0  0  0  0  0  0  0  0  0  0  0
   -7.3911  -13.5056   55.7997 O   0  0  0  0  0  0  0  0  0  0  0  0
  -10.3715  -13.3946   54.6653 H   0  0  0  0  0  0  0  0  0  0  0  0
   -8.4218  -15.2874   54.6262 C   0  0  0  0  0  0  0  0  0  0  0  0
   -7.3147  -15.7942   53.9194 C   0  0  0  0  0  0  0  0  0  0  0  0
   -7.3354  -17.0947   53.4059 C   0  0  0  0  0  0  0  0  0  0  0  0
   -8.4633  -17.8994   53.5812 C   0  0  0  0  0  0  0  0  0  0  0  0
   -9.5712  -17.4073   54.2739 C   0  0  0  0  0  0  0  0  0  0  0  0
   -9.5561  -16.1080   54.7909 C   0  0  0  0  0  0  0  0  0  0  0  0
   -4.7993   -6.4692   56.4497 C   0  0  0  0  0  0  0  0  0  0  0  0
   -3.8072   -5.3418   56.5025 C   0  0  0  0  0  0  0  0  0  0  0  0
   -3.0362   -4.9703   55.4533 N   0  0  0  0  0  0  0  0  0  0  0  0
   -2.2768   -3.9534   55.8523 N   0  0  0  0  0  0  0  0  0  0  0  0
   -2.5996   -3.7282   57.1389 C   0  0  0  0  0  0  0  0  0  0  0  0
   -2.0478   -2.7660   57.9798 C   0  0  0  0  0  0  0  0  0  0  0  0
   -2.5107   -2.7227   59.3053 C   0  0  0  0  0  0  0  0  0  0  0  0
   -3.4938   -3.6316   59.7469 C   0  0  0  0  0  0  0  0  0  0  0  0
   -4.0172   -4.5741   58.8482 C   0  0  0  0  0  0  0  0  0  0  0  0
   -3.5441   -4.5721   57.5750 N   0  0  0  0  0  0  0  0  0  0  0  0
  8  9  1  0  0  0
  9 13  1  0  0  0
 13 14  1  0  0  0
 14 15  2  0  0  0
 14 17  1  0  0  0
 17 18  2  0  0  0
 18 19  1  0  0  0
 19 20  2  0  0  0
 20 21  1  0  0  0
 21 22  2  0  0  0
  9 10  2  0  0  0
 10 11  1  0  0  0
 11 12  2  0  0  0
 12  1  1  0  0  0
  1  2  1  0  0  0
  2  3  1  0  0  0
  3  4  1  0  0  0
  4 23  1  0  0  0
 23 24  1  0  0  0
 24 25  2  0  0  0
 25 26  1  0  0  0
 26 27  2  0  0  0
 27 28  1  0  0  0
 28 29  2  0  0  0
 29 30  1  0  0  0
 30 31  2  0  0  0
 31 32  1  0  0  0
  4  5  1  0  0  0
  5  6  1  0  0  0
  6  7  1  0  0  0
 12  8  1  0  0  0
  7  1  1  0  0  0
 22 17  1  0  0  0
 32 24  1  0  0  0
 32 27  1  0  0  0
 13 16  1  0  0  0
M  END
> <minimizedAffinity>
-9.02718

> <CNNaffinity>
-1.0000000000

$$$$



 32 36  0  0  0  0  0  0  0  0999 V2000
    7.3973   -9.6804   35.2892 N   0  0  0  0  0  0  0  0  0  0  0  0
    7.6961  -10.9818   34.6773 C   0  0  0  0  0  0  0  0  0  0  0  0
    9.2159  -11.1680   34.5751 C   0  0  0  0  0  0  0  0  0  0  0  0
    9.8822  -11.7541   35.8489 C   0  0  0  0  0  0  0  0  0  0  0  0
    9.2249  -11.3301   37.1952 C   0  0  0  0  0  0  0  0  0  0  0  0
    8.8363   -9.8426   37.2961 C   0  0  0  0  0  0  0  0  0  0  0  0
    7.4249   -9.5757   36.7533 C   0  0  0  0  0  0  0  0  0  0  0  0
    7.2410   -6.9040   35.0582 S   0  0  0  0  0  0  0  0  0  0  0  0
    7.1721   -6.3050   33.4871 C   0  0  0  0  0  0  0  0  0  0  0  0
    7.2096   -7.2996   32.5734 N   0  0  0  0  0  0  0  0  0  0  0  0
    7.2816   -8.5116   33.1213 N   0  0  0  0  0  0  0  0  0  0  0  0
    7.3108   -8.4908   34.4742 C   0  0  0  0  0  0  0  0  0  0  0  0
    7.1303   -4.9094   33.1606 N   0  0  0  0  0  0  0  0  0  0  0  0
    5.9138   -4.2030   32.8582 C   0  0  0  0  0  0  0  0  0  0  0  0
    4.8007   -4.7040   33.1758 O   0  0  0  0  0  0  0  0  0  0  0  0
    7.9777   -4.4087   33.1423 H   0  0  0  0  0  0  0  0  0  0  0  0
    5.9443   -2.8779   32.1899 C   0  0  0  0  0  0  0  0  0  0  0  0
    5.0639   -1.8592   32.6012 C   0  0  0  0  0  0  0  0  0  0  0  0
    5.0725   -0.6139   31.9650 C   0  0  0  0  0  0  0  0  0  0  0  0
    5.9500   -0.3747   30.9053 C   0  0  0  0  0  0  0  0  0  0  0  0
    6.8238   -1.3781   30.4821 C   0  0  0  0  0  0  0  0  0  0  0  0
    6.8208   -2.6252   31.1151 C   0  0  0  0  0  0  0  0  0  0  0  0
   11.3966  -11.4432   35.8279 C   0  0  0  0  0  0  0  0  0  0  0  0
   12.1979  -12.5775   35.2538 C   0  0  0  0  0  0  0  0  0  0  0  0
   12.7837  -12.5410   34.0336 N   0  0  0  0  0  0  0  0  0  0  0  0
   13.3983  -13.7061   33.8475 N   0  0  0  0  0  0  0  0  0  0  0  0
   13.1716  -14.4300   34.9587 C   0  0  0  0  0  0  0  0  0  0  0  0
   13.6083  -15.7274   35.2110 C   0  0  0  0  0  0  0  0  0  0  0  0
   13.2300  -16.3118   36.4310 C   0  0  0  0  0  0  0  0  0  0  0  0
   12.4345  -15.5952   37.3482 C   0  0  0  0  0  0  0  0  0  0  0  0
   12.0320  -14.2866   37.0391 C   0  0  0  0  0  0  0  0  0  0  0  0
   12.4291  -13.7615   35.8510 N   0  0  0  0  0  0  0  0  0  0  0  0
  8  9  1  0  0  0
  9 13  1  0  0  0
 13 14  1  0  0  0
 14 15  2  0  0  0
 14 17  1  0  0  0
 17 18  2  0  0  0
 18 19  1  0  0  0
 19 20  2  0  0  0
 20 21  1  0  0  0
 21 22  2  0  0  0
  9 10  2  0  0  0
 10 11  1  0  0  0
 11 12  2  0  0  0
 12  1  1  0  0  0
  1  2  1  0  0  0
  2  3  1  0  0  0
  3  4  1  0  0  0
  4 23  1  0  0  0
 23 24  1  0  0  0
 24 25  2  0  0  0
 25 26  1  0  0  0
 26 27  2  0  0  0
 27 28  1  0  0  0
 28 29  2  0  0  0
 29 30  1  0  0  0
 30 31  2  0  0  0
 31 32  1  0  0  0
  4  5  1  0  0  0
  5  6  1  0  0  0
  6  7  1  0  0  0
 12  8  1  0  0  0
  7  1  1  0  0  0
 22 17  1  0  0  0
 32 24  1  0  0  0
 32 27  1  0  0  0
 13 16  1  0  0  0
M  END
> <minimizedAffinity>
-8.95381

> <CNNaffinity>
-1.0000000000

$$$$



 32 36  0  0  0  0  0  0  0  0999 V2000
   -9.9183  -13.9986   54.9644 N   0  0  0  0  0  0  0  0  0  0  0  0
  -10.8071  -14.3223   56.0882 C   0  0  0  0  0  0  0  0  0  0  0  0
  -11.9737  -13.3261   56.1277 C   0  0  0  0  0  0  0  0  0  0  0  0
  -13.1793  -13.7070   55.2268 C   0  0  0  0  0  0  0  0  0  0  0  0
  -12.8122  -14.4448   53.9058 C   0  0  0  0  0  0  0  0  0  0  0  0
  -11.5971  -13.8730   53.1505 C   0  0  0  0  0  0  0  0  0  0  0  0
  -10.2757  -14.4919   53.6287 C   0  0  0  0  0  0  0  0  0  0  0  0
   -9.0509  -11.3513   55.1226 S   0  0  0  0  0  0  0  0  0  0  0  0
   -7.3988  -11.1375   55.3612 C   0  0  0  0  0  0  0  0  0  0  0  0
   -6.7508  -12.3203   55.4430 N   0  0  0  0  0  0  0  0  0  0  0  0
   -7.5589  -13.3705   55.3074 N   0  0  0  0  0  0  0  0  0  0  0  0
   -8.8566  -13.0324   55.1255 C   0  0  0  0  0  0  0  0  0  0  0  0
   -6.7675   -9.8587   55.5099 N   0  0  0  0  0  0  0  0  0  0  0  0
   -6.2705   -9.3622   56.7656 C   0  0  0  0  0  0  0  0  0  0  0  0
   -6.0828  -10.1580   57.7259 O   0  0  0  0  0  0  0  0  0  0  0  0
   -6.6690   -9.2911   54.7116 H   0  0  0  0  0  0  0  0  0  0  0  0
   -5.9557   -7.9232   56.9489 C   0  0  0  0  0  0  0  0  0  0  0  0
   -6.5695   -6.9563   56.1300 C   0  0  0  0  0  0  0  0  0  0  0  0
   -6.2649   -5.6001   56.2828 C   0  0  0  0  0  0  0  0  0  0  0  0
   -5.3374   -5.1944   57.2449 C   0  0  0  0  0  0  0  0  0  0  0  0
   -4.7158   -6.1430   58.0592 C   0  0  0  0  0  0  0  0  0  0  0  0
   -5.0170   -7.5007   57.9120 C   0  0  0  0  0  0  0  0  0  0  0  0
  -14.0410  -12.4510   54.9611 C   0  0  0  0  0  0  0  0  0  0  0  0
  -15.5061  -12.7188   55.1612 C   0  0  0  0  0  0  0  0  0  0  0  0
  -16.1118  -13.8787   54.8135 N   0  0  0  0  0  0  0  0  0  0  0  0
  -17.4009  -13.7680   55.1233 N   0  0  0  0  0  0  0  0  0  0  0  0
  -17.5542  -12.5401   55.6515 C   0  0  0  0  0  0  0  0  0  0  0  0
  -18.7403  -11.9717   56.1072 C   0  0  0  0  0  0  0  0  0  0  0  0
  -18.6816  -10.6559   56.5954 C   0  0  0  0  0  0  0  0  0  0  0  0
  -17.4585   -9.9550   56.6100 C   0  0  0  0  0  0  0  0  0  0  0  0
  -16.2947  -10.5860   56.1437 C   0  0  0  0  0  0  0  0  0  0  0  0
  -16.3999  -11.8615   55.6886 N   0  0  0  0  0  0  0  0  0  0  0  0
  8  9  1  0  0  0
  9 13  1  0  0  0
 13 14  1  0  0  0
 14 15  2  0  0  0
 14 17  1  0  0  0
 17 18  2  0  0  0
 18 19  1  0  0  0
 19 20  2  0  0  0
 20 21  1  0  0  0
 21 22  2  0  0  0
  9 10  2  0  0  0
 10 11  1  0  0  0
 11 12  2  0  0  0
 12  1  1  0  0  0
  1  2  1  0  0  0
  2  3  1  0  0  0
  3  4  1  0  0  0
  4 23  1  0  0  0
 23 24  1  0  0  0
 24 25  2  0  0  0
 25 26  1  0  0  0
 26 27  2  0  0  0
 27 28  1  0  0  0
 28 29  2  0  0  0
 29 30  1  0  0  0
 30 31  2  0  0  0
 31 32  1  0  0  0
  4  5  1  0  0  0
  5  6  1  0  0  0
  6  7  1  0  0  0
 12  8  1  0  0  0
  7  1  1  0  0  0
 22 17  1  0  0  0
 32 24  1  0  0  0
 32 27  1  0  0  0
 13 16  1  0  0  0
M  END
> <minimizedAffinity>
-8.87669

> <CNNaffinity>
-1.0000000000

$$$$



 32 36  0  0  0  0  0  0  0  0999 V2000
   11.6142  -14.6165   37.8626 N   0  0  0  0  0  0  0  0  0  0  0  0
   12.1149  -15.8464   37.2347 C   0  0  0  0  0  0  0  0  0  0  0  0
   13.1633  -15.4936   36.1711 C   0  0  0  0  0  0  0  0  0  0  0  0
   14.6079  -15.3323   36.7164 C   0  0  0  0  0  0  0  0  0  0  0  0
   14.7113  -14.7467   38.1554 C   0  0  0  0  0  0  0  0  0  0  0  0
   13.7737  -13.5601   38.4500 C   0  0  0  0  0  0  0  0  0  0  0  0
   12.3978  -14.0213   38.9521 C   0  0  0  0  0  0  0  0  0  0  0  0
   10.6385  -12.4071   36.4653 S   0  0  0  0  0  0  0  0  0  0  0  0
    8.9803  -12.3992   36.1781 C   0  0  0  0  0  0  0  0  0  0  0  0
    8.3825  -13.5002   36.6841 N   0  0  0  0  0  0  0  0  0  0  0  0
    9.2327  -14.3235   37.2954 N   0  0  0  0  0  0  0  0  0  0  0  0
   10.5142  -13.8889   37.2731 C   0  0  0  0  0  0  0  0  0  0  0  0
    8.2972  -11.3751   35.4429 N   0  0  0  0  0  0  0  0  0  0  0  0
    8.1201  -11.4093   34.0154 C   0  0  0  0  0  0  0  0  0  0  0  0
    8.2788  -12.4921   33.3884 O   0  0  0  0  0  0  0  0  0  0  0  0
    7.9305  -10.6088   35.9405 H   0  0  0  0  0  0  0  0  0  0  0  0
    7.7344  -10.1895   33.2627 C   0  0  0  0  0  0  0  0  0  0  0  0
    7.9374   -8.9166   33.8291 C   0  0  0  0  0  0  0  0  0  0  0  0
    7.5599   -7.7626   33.1353 C   0  0  0  0  0  0  0  0  0  0  0  0
    6.9660   -7.8653   31.8755 C   0  0  0  0  0  0  0  0  0  0  0  0
    6.7522   -9.1215   31.3046 C   0  0  0  0  0  0  0  0  0  0  0  0
    7.1285  -10.2792   31.9930 C   0  0  0  0  0  0  0  0  0  0  0  0
   15.4525  -14.5221   35.7061 C   0  0  0  0  0  0  0  0  0  0  0  0
   14.6036  -13.6192   34.8563 C   0  0  0  0  0  0  0  0  0  0  0  0
   13.9129  -14.0406   33.7706 N   0  0  0  0  0  0  0  0  0  0  0  0
   13.2839  -12.9856   33.2595 N   0  0  0  0  0  0  0  0  0  0  0  0
   13.6071  -11.9415   34.0441 C   0  0  0  0  0  0  0  0  0  0  0  0
   13.1938  -10.6217   33.8863 C   0  0  0  0  0  0  0  0  0  0  0  0
   13.6776   -9.6775   34.8069 C   0  0  0  0  0  0  0  0  0  0  0  0
   14.5508  -10.0727   35.8407 C   0  0  0  0  0  0  0  0  0  0  0  0
   14.9250  -11.4209   35.9518 C   0  0  0  0  0  0  0  0  0  0  0  0
   14.4254  -12.2980   35.0430 N   0  0  0  0  0  0  0  0  0  0  0  0
  8  9  1  0  0  0
  9 13  1  0  0  0
 13 14  1  0  0  0
 14 15  2  0  0  0
 14 17  1  0  0  0
 17 18  2  0  0  0
 18 19  1  0  0  0
 19 20  2  0  0  0
 20 21  1  0  0  0
 21 22  2  0  0  0
  9 10  2  0  0  0
 10 11  1  0  0  0
 11 12  2  0  0  0
 12  1  1  0  0  0
  1  2  1  0  0  0
  2  3  1  0  0  0
  3  4  1  0  0  0
  4 23  1  0  0  0
 23 24  1  0  0  0
 24 25  2  0  0  0
 25 26  1  0  0  0
 26 27  2  0  0  0
 27 28  1  0  0  0
 28 29  2  0  0  0
 29 30  1  0  0  0
 30 31  2  0  0  0
 31 32  1  0  0  0
  4  5  1  0  0  0
  5  6  1  0  0  0
  6  7  1  0  0  0
 12  8  1  0  0  0
  7  1  1  0  0  0
 22 17  1  0  0  0
 32 24  1  0  0  0
 32 27  1  0  0  0
 13 16  1  0  0  0
M  END
> <minimizedAffinity>
-8.84821

> <CNNaffinity>
-1.0000000000

$$$$



 32 36  0  0  0  0  0  0  0  0999 V2000
   11.5792  -14.6323   37.2481 N   0  0  0  0  0  0  0  0  0  0  0  0
   12.1859  -15.6063   36.3312 C   0  0  0  0  0  0  0  0  0  0  0  0
   13.2957  -14.9277   35.5170 C   0  0  0  0  0  0  0  0  0  0  0  0
   14.6840  -14.9040   36.2115 C   0  0  0  0  0  0  0  0  0  0  0  0
   14.6468  -14.7734   37.7626 C   0  0  0  0  0  0  0  0  0  0  0  0
   13.6330  -13.7510   38.3110 C   0  0  0  0  0  0  0  0  0  0  0  0
   12.2461  -14.3725   38.5299 C   0  0  0  0  0  0  0  0  0  0  0  0
   10.6680  -12.3179   35.9836 S   0  0  0  0  0  0  0  0  0  0  0  0
    8.9967  -12.1328   35.9158 C   0  0  0  0  0  0  0  0  0  0  0  0
    8.3573  -13.1703   36.4993 N   0  0  0  0  0  0  0  0  0  0  0  0
    9.1884  -14.0847   36.9966 N   0  0  0  0  0  0  0  0  0  0  0  0
   10.4946  -13.7870   36.8054 C   0  0  0  0  0  0  0  0  0  0  0  0
    8.3355  -11.0348   35.2731 N   0  0  0  0  0  0  0  0  0  0  0  0
    7.8395  -11.0894   33.9235 C   0  0  0  0  0  0  0  0  0  0  0  0
    7.6819  -12.2050   33.3567 O   0  0  0  0  0  0  0  0  0  0  0  0
    8.2145  -10.2005   35.7815 H   0  0  0  0  0  0  0  0  0  0  0  0
    7.4911   -9.8494   33.1857 C   0  0  0  0  0  0  0  0  0  0  0  0
    7.1278   -9.9148   31.8270 C   0  0  0  0  0  0  0  0  0  0  0  0
    6.8162   -8.7500   31.1188 C   0  0  0  0  0  0  0  0  0  0  0  0
    6.8743   -7.5074   31.7536 C   0  0  0  0  0  0  0  0  0  0  0  0
    7.2398   -7.4269   33.0987 C   0  0  0  0  0  0  0  0  0  0  0  0
    7.5515   -8.5883   33.8126 C   0  0  0  0  0  0  0  0  0  0  0  0
   15.5647  -13.8096   35.5654 C   0  0  0  0  0  0  0  0  0  0  0  0
   17.0306  -14.1093   35.7047 C   0  0  0  0  0  0  0  0  0  0  0  0
   17.5154  -15.2403   36.2697 N   0  0  0  0  0  0  0  0  0  0  0  0
   18.8435  -15.1709   36.2330 N   0  0  0  0  0  0  0  0  0  0  0  0
   19.1403  -13.9963   35.6479 C   0  0  0  0  0  0  0  0  0  0  0  0
   20.4118  -13.4828   35.4086 C   0  0  0  0  0  0  0  0  0  0  0  0
   20.4957  -12.2149   34.8100 C   0  0  0  0  0  0  0  0  0  0  0  0
   19.3240  -11.5052   34.4767 C   0  0  0  0  0  0  0  0  0  0  0  0
   18.0702  -12.0803   34.7363 C   0  0  0  0  0  0  0  0  0  0  0  0
   18.0400  -13.3115   35.3091 N   0  0  0  0  0  0  0  0  0  0  0  0
  8  9  1  0  0  0
  9 13  1  0  0  0
 13 14  1  0  0  0
 14 15  2  0  0  0
 14 17  1  0  0  0
 17 18  2  0  0  0
 18 19  1  0  0  0
 19 20  2  0  0  0
 20 21  1  0  0  0
 21 22  2  0  0  0
  9 10  2  0  0  0
 10 11  1  0  0  0
 11 12  2  0  0  0
 12  1  1  0  0  0
  1  2  1  0  0  0
  2  3  1  0  0  0
  3  4  1  0  0  0
  4 23  1  0  0  0
 23 24  1  0  0  0
 24 25  2  0  0  0
 25 26  1  0  0  0
 26 27  2  0  0  0
 27 28  1  0  0  0
 28 29  2  0  0  0
 29 30  1  0  0  0
 30 31  2  0  0  0
 31 32  1  0  0  0
  4  5  1  0  0  0
  5  6  1  0  0  0
  6  7  1  0  0  0
 12  8  1  0  0  0
  7  1  1  0  0  0
 22 17  1  0  0  0
 32 24  1  0  0  0
 32 27  1  0  0  0
 13 16  1  0  0  0
M  END
> <minimizedAffinity>
-8.82886

> <CNNaffinity>
-1.0000000000

$$$$



 32 36  0  0  0  0  0  0  0  0999 V2000
    9.1923  -11.4824   35.5972 N   0  0  0  0  0  0  0  0  0  0  0  0
    8.9742  -10.2770   36.4077 C   0  0  0  0  0  0  0  0  0  0  0  0
    8.6949   -9.0801   35.4889 C   0  0  0  0  0  0  0  0  0  0  0  0
    7.2080   -8.9181   35.0729 C   0  0  0  0  0  0  0  0  0  0  0  0
    6.4192  -10.2495   34.9013 C   0  0  0  0  0  0  0  0  0  0  0  0
    7.1770  -11.3711   34.1653 C   0  0  0  0  0  0  0  0  0  0  0  0
    8.0182  -12.2260   35.1241 C   0  0  0  0  0  0  0  0  0  0  0  0
   11.8983  -10.8591   35.3240 S   0  0  0  0  0  0  0  0  0  0  0  0
   12.8136  -11.9553   34.4336 C   0  0  0  0  0  0  0  0  0  0  0  0
   12.0619  -12.9870   33.9908 N   0  0  0  0  0  0  0  0  0  0  0  0
   10.7823  -12.8940   34.3489 N   0  0  0  0  0  0  0  0  0  0  0  0
   10.5073  -11.7930   35.0863 C   0  0  0  0  0  0  0  0  0  0  0  0
   14.2257  -11.8333   34.2167 N   0  0  0  0  0  0  0  0  0  0  0  0
   15.2070  -12.5972   34.9405 C   0  0  0  0  0  0  0  0  0  0  0  0
   14.8575  -13.6324   35.5707 O   0  0  0  0  0  0  0  0  0  0  0  0
   14.5401  -11.1938   33.5374 H   0  0  0  0  0  0  0  0  0  0  0  0
   16.6364  -12.1973   34.9459 C   0  0  0  0  0  0  0  0  0  0  0  0
   17.6410  -13.1644   34.7516 C   0  0  0  0  0  0  0  0  0  0  0  0
   18.9908  -12.7999   34.7738 C   0  0  0  0  0  0  0  0  0  0  0  0
   19.3540  -11.4708   35.0013 C   0  0  0  0  0  0  0  0  0  0  0  0
   18.3686  -10.5023   35.2026 C   0  0  0  0  0  0  0  0  0  0  0  0
   17.0169  -10.8603   35.1804 C   0  0  0  0  0  0  0  0  0  0  0  0
    7.1202   -8.0331   33.8081 C   0  0  0  0  0  0  0  0  0  0  0  0
    6.3048   -6.7928   34.0423 C   0  0  0  0  0  0  0  0  0  0  0  0
    5.6628   -6.5244   35.2038 N   0  0  0  0  0  0  0  0  0  0  0  0
    5.0397   -5.3580   35.0588 N   0  0  0  0  0  0  0  0  0  0  0  0
    5.3134   -4.9408   33.8093 C   0  0  0  0  0  0  0  0  0  0  0  0
    4.8602   -3.7725   33.2033 C   0  0  0  0  0  0  0  0  0  0  0  0
    5.2428   -3.5439   31.8712 C   0  0  0  0  0  0  0  0  0  0  0  0
    6.0517   -4.4776   31.1918 C   0  0  0  0  0  0  0  0  0  0  0  0
    6.4832   -5.6338   31.8604 C   0  0  0  0  0  0  0  0  0  0  0  0
    6.0940   -5.8071   33.1501 N   0  0  0  0  0  0  0  0  0  0  0  0
  8  9  1  0  0  0
  9 13  1  0  0  0
 13 14  1  0  0  0
 14 15  2  0  0  0
 14 17  1  0  0  0
 17 18  2  0  0  0
 18 19  1  0  0  0
 19 20  2  0  0  0
 20 21  1  0  0  0
 21 22  2  0  0  0
  9 10  2  0  0  0
 10 11  1  0  0  0
 11 12  2  0  0  0
 12  1  1  0  0  0
  1  2  1  0  0  0
  2  3  1  0  0  0
  3  4  1  0  0  0
  4 23  1  0  0  0
 23 24  1  0  0  0
 24 25  2  0  0  0
 25 26  1  0  0  0
 26 27  2  0  0  0
 27 28  1  0  0  0
 28 29  2  0  0  0
 29 30  1  0  0  0
 30 31  2  0  0  0
 31 32  1  0  0  0
  4  5  1  0  0  0
  5  6  1  0  0  0
  6  7  1  0  0  0
 12  8  1  0  0  0
  7  1  1  0  0  0
 22 17  1  0  0  0
 32 24  1  0  0  0
 32 27  1  0  0  0
 13 16  1  0  0  0
M  END
> <minimizedAffinity>
-8.76601

> <CNNaffinity>
-1.0000000000

$$$$



 32 36  0  0  0  0  0  0  0  0999 V2000
    6.4269   -8.6503   35.6832 N   0  0  0  0  0  0  0  0  0  0  0  0
    7.8661   -8.8971   35.8495 C   0  0  0  0  0  0  0  0  0  0  0  0
    8.4326   -9.6318   34.6291 C   0  0  0  0  0  0  0  0  0  0  0  0
    8.2025  -11.1619   34.6341 C   0  0  0  0  0  0  0  0  0  0  0  0
    6.7071  -11.5507   34.7151 C   0  0  0  0  0  0  0  0  0  0  0  0
    5.9848  -11.1210   36.0081 C   0  0  0  0  0  0  0  0  0  0  0  0
    5.4172   -9.6942   35.9319 C   0  0  0  0  0  0  0  0  0  0  0  0
    6.9208   -6.2565   34.3520 S   0  0  0  0  0  0  0  0  0  0  0  0
    5.6387   -5.1557   34.3282 C   0  0  0  0  0  0  0  0  0  0  0  0
    4.5651   -5.6343   34.9921 N   0  0  0  0  0  0  0  0  0  0  0  0
    4.7560   -6.8539   35.4874 N   0  0  0  0  0  0  0  0  0  0  0  0
    5.9862   -7.3556   35.2268 C   0  0  0  0  0  0  0  0  0  0  0  0
    5.6479   -3.8615   33.7068 N   0  0  0  0  0  0  0  0  0  0  0  0
    4.9367   -3.5341   32.5018 C   0  0  0  0  0  0  0  0  0  0  0  0
    4.0659   -4.3247   32.0509 O   0  0  0  0  0  0  0  0  0  0  0  0
    6.1771   -3.1504   34.1351 H   0  0  0  0  0  0  0  0  0  0  0  0
    5.1672   -2.2405   31.8147 C   0  0  0  0  0  0  0  0  0  0  0  0
    5.7055   -2.1965   30.5137 C   0  0  0  0  0  0  0  0  0  0  0  0
    5.9421   -0.9696   29.8890 C   0  0  0  0  0  0  0  0  0  0  0  0
    5.6423    0.2241   30.5505 C   0  0  0  0  0  0  0  0  0  0  0  0
    5.0899    0.1935   31.8328 C   0  0  0  0  0  0  0  0  0  0  0  0
    4.8465   -1.0309   32.4619 C   0  0  0  0  0  0  0  0  0  0  0  0
    9.0635  -11.9186   35.6788 C   0  0  0  0  0  0  0  0  0  0  0  0
   10.3296  -12.4625   35.0828 C   0  0  0  0  0  0  0  0  0  0  0  0
   10.5411  -13.7754   34.8380 N   0  0  0  0  0  0  0  0  0  0  0  0
   11.7675  -13.8970   34.3404 N   0  0  0  0  0  0  0  0  0  0  0  0
   12.2769  -12.6528   34.2900 C   0  0  0  0  0  0  0  0  0  0  0  0
   13.5385  -12.2851   33.8345 C   0  0  0  0  0  0  0  0  0  0  0  0
   13.8589  -10.9186   33.8562 C   0  0  0  0  0  0  0  0  0  0  0  0
   12.9251   -9.9730   34.3249 C   0  0  0  0  0  0  0  0  0  0  0  0
   11.6690  -10.4069   34.7711 C   0  0  0  0  0  0  0  0  0  0  0  0
   11.4089  -11.7382   34.7394 N   0  0  0  0  0  0  0  0  0  0  0  0
  8  9  1  0  0  0
  9 13  1  0  0  0
 13 14  1  0  0  0
 14 15  2  0  0  0
 14 17  1  0  0  0
 17 18  2  0  0  0
 18 19  1  0  0  0
 19 20  2  0  0  0
 20 21  1  0  0  0
 21 22  2  0  0  0
  9 10  2  0  0  0
 10 11  1  0  0  0
 11 12  2  0  0  0
 12  1  1  0  0  0
  1  2  1  0  0  0
  2  3  1  0  0  0
  3  4  1  0  0  0
  4 23  1  0  0  0
 23 24  1  0  0  0
 24 25  2  0  0  0
 25 26  1  0  0  0
 26 27  2  0  0  0
 27 28  1  0  0  0
 28 29  2  0  0  0
 29 30  1  0  0  0
 30 31  2  0  0  0
 31 32  1  0  0  0
  4  5  1  0  0  0
  5  6  1  0  0  0
  6  7  1  0  0  0
 12  8  1  0  0  0
  7  1  1  0  0  0
 22 17  1  0  0  0
 32 24  1  0  0  0
 32 27  1  0  0  0
 13 16  1  0  0  0
M  END
> <minimizedAffinity>
-9.84495

> <CNNaffinity>
-1.0000000000

$$$$



 32 36  0  0  0  0  0  0  0  0999 V2000
   -6.3290   -8.5928   55.0120 N   0  0  0  0  0  0  0  0  0  0  0  0
   -5.0951   -8.1907   55.7016 C   0  0  0  0  0  0  0  0  0  0  0  0
   -5.4134   -7.6146   57.0861 C   0  0  0  0  0  0  0  0  0  0  0  0
   -5.8555   -6.1319   57.0810 C   0  0  0  0  0  0  0  0  0  0  0  0
   -7.1075   -5.8745   56.2091 C   0  0  0  0  0  0  0  0  0  0  0  0
   -6.9289   -6.1534   54.7030 C   0  0  0  0  0  0  0  0  0  0  0  0
   -7.1995   -7.6199   54.3286 C   0  0  0  0  0  0  0  0  0  0  0  0
   -8.0026  -10.6460   54.1577 S   0  0  0  0  0  0  0  0  0  0  0  0
   -7.6871  -12.1688   54.8194 C   0  0  0  0  0  0  0  0  0  0  0  0
   -6.6542  -12.1253   55.6874 N   0  0  0  0  0  0  0  0  0  0  0  0
   -6.1182  -10.9134   55.8039 N   0  0  0  0  0  0  0  0  0  0  0  0
   -6.7236   -9.9794   55.0332 C   0  0  0  0  0  0  0  0  0  0  0  0
   -8.4063  -13.3785   54.5357 N   0  0  0  0  0  0  0  0  0  0  0  0
   -7.8356  -14.5313   53.8949 C   0  0  0  0  0  0  0  0  0  0  0  0
   -6.5867  -14.6206   53.7574 O   0  0  0  0  0  0  0  0  0  0  0  0
   -9.3543  -13.4212   54.7978 H   0  0  0  0  0  0  0  0  0  0  0  0
   -8.6964  -15.6541   53.4510 C   0  0  0  0  0  0  0  0  0  0  0  0
  -10.1005  -15.5598   53.5139 C   0  0  0  0  0  0  0  0  0  0  0  0
  -10.8986  -16.6356   53.1173 C   0  0  0  0  0  0  0  0  0  0  0  0
  -10.3080  -17.8130   52.6512 C   0  0  0  0  0  0  0  0  0  0  0  0
   -8.9177  -17.9118   52.5654 C   0  0  0  0  0  0  0  0  0  0  0  0
   -8.1133  -16.8374   52.9565 C   0  0  0  0  0  0  0  0  0  0  0  0
   -4.7059   -5.1395   56.7654 C   0  0  0  0  0  0  0  0  0  0  0  0
   -4.1679   -4.4830   58.0038 C   0  0  0  0  0  0  0  0  0  0  0  0
   -4.0201   -5.1194   59.1875 N   0  0  0  0  0  0  0  0  0  0  0  0
   -3.5497   -4.2351   60.0611 N   0  0  0  0  0  0  0  0  0  0  0  0
   -3.4181   -3.0772   59.3888 C   0  0  0  0  0  0  0  0  0  0  0  0
   -2.9554   -1.8666   59.8936 C   0  0  0  0  0  0  0  0  0  0  0  0
   -2.8844   -0.7824   59.0048 C   0  0  0  0  0  0  0  0  0  0  0  0
   -3.2715   -0.9353   57.6585 C   0  0  0  0  0  0  0  0  0  0  0  0
   -3.7297   -2.1820   57.2100 C   0  0  0  0  0  0  0  0  0  0  0  0
   -3.7891   -3.1973   58.1081 N   0  0  0  0  0  0  0  0  0  0  0  0
  8  9  1  0  0  0
  9 13  1  0  0  0
 13 14  1  0  0  0
 14 15  2  0  0  0
 14 17  1  0  0  0
 17 18  2  0  0  0
 18 19  1  0  0  0
 19 20  2  0  0  0
 20 21  1  0  0  0
 21 22  2  0  0  0
  9 10  2  0  0  0
 10 11  1  0  0  0
 11 12  2  0  0  0
 12  1  1  0  0  0
  1  2  1  0  0  0
  2  3  1  0  0  0
  3  4  1  0  0  0
  4 23  1  0  0  0
 23 24  1  0  0  0
 24 25  2  0  0  0
 25 26  1  0  0  0
 26 27  2  0  0  0
 27 28  1  0  0  0
 28 29  2  0  0  0
 29 30  1  0  0  0
 30 31  2  0  0  0
 31 32  1  0  0  0
  4  5  1  0  0  0
  5  6  1  0  0  0
  6  7  1  0  0  0
 12  8  1  0  0  0
  7  1  1  0  0  0
 22 17  1  0  0  0
 32 24  1  0  0  0
 32 27  1  0  0  0
 13 16  1  0  0  0
M  END
> <minimizedAffinity>
-9.79116

> <CNNaffinity>
-1.0000000000

$$$$



 32 36  0  0  0  0  0  0  0  0999 V2000
   -6.9154  -10.1986   56.6955 N   0  0  0  0  0  0  0  0  0  0  0  0
   -7.1622   -8.8125   56.2742 C   0  0  0  0  0  0  0  0  0  0  0  0
   -5.9506   -8.2536   55.5193 C   0  0  0  0  0  0  0  0  0  0  0  0
   -4.8070   -7.7403   56.4264 C   0  0  0  0  0  0  0  0  0  0  0  0
   -4.2561   -8.8255   57.3818 C   0  0  0  0  0  0  0  0  0  0  0  0
   -5.2633   -9.3605   58.4199 C   0  0  0  0  0  0  0  0  0  0  0  0
   -6.1119  -10.5263   57.8864 C   0  0  0  0  0  0  0  0  0  0  0  0
   -9.0778  -11.6791   55.7581 S   0  0  0  0  0  0  0  0  0  0  0  0
   -8.6928  -12.9638   54.7297 C   0  0  0  0  0  0  0  0  0  0  0  0
   -7.3595  -13.0648   54.5441 N   0  0  0  0  0  0  0  0  0  0  0  0
   -6.6681  -12.1293   55.1894 N   0  0  0  0  0  0  0  0  0  0  0  0
   -7.4451  -11.2777   55.8994 C   0  0  0  0  0  0  0  0  0  0  0  0
   -9.6275  -13.8665   54.1193 N   0  0  0  0  0  0  0  0  0  0  0  0
   -9.4502  -15.2906   54.0438 C   0  0  0  0  0  0  0  0  0  0  0  0
   -8.5547  -15.8502   54.7304 O   0  0  0  0  0  0  0  0  0  0  0  0
  -10.4450  -13.4841   53.7260 H   0  0  0  0  0  0  0  0  0  0  0  0
  -10.3556  -16.1230   53.2155 C   0  0  0  0  0  0  0  0  0  0  0  0
  -10.1120  -17.4984   53.0340 C   0  0  0  0  0  0  0  0  0  0  0  0
  -10.9585  -18.2649   52.2293 C   0  0  0  0  0  0  0  0  0  0  0  0
  -12.0566  -17.6716   51.6010 C   0  0  0  0  0  0  0  0  0  0  0  0
  -12.3202  -16.3131   51.7890 C   0  0  0  0  0  0  0  0  0  0  0  0
  -11.4796  -15.5414   52.5966 C   0  0  0  0  0  0  0  0  0  0  0  0
   -5.1442   -6.4207   57.1685 C   0  0  0  0  0  0  0  0  0  0  0  0
   -4.1310   -5.3454   56.9014 C   0  0  0  0  0  0  0  0  0  0  0  0
   -3.5581   -5.1362   55.6947 N   0  0  0  0  0  0  0  0  0  0  0  0
   -2.6976   -4.1322   55.8289 N   0  0  0  0  0  0  0  0  0  0  0  0
   -2.7669   -3.7487   57.1167 C   0  0  0  0  0  0  0  0  0  0  0  0
   -2.0454   -2.7259   57.7230 C   0  0  0  0  0  0  0  0  0  0  0  0
   -2.2884   -2.4848   59.0844 C   0  0  0  0  0  0  0  0  0  0  0  0
   -3.2301   -3.2596   59.7904 C   0  0  0  0  0  0  0  0  0  0  0  0
   -3.9258   -4.2770   59.1224 C   0  0  0  0  0  0  0  0  0  0  0  0
   -3.6502   -4.4782   57.8092 N   0  0  0  0  0  0  0  0  0  0  0  0
  8  9  1  0  0  0
  9 13  1  0  0  0
 13 14  1  0  0  0
 14 15  2  0  0  0
 14 17  1  0  0  0
 17 18  2  0  0  0
 18 19  1  0  0  0
 19 20  2  0  0  0
 20 21  1  0  0  0
 21 22  2  0  0  0
  9 10  2  0  0  0
 10 11  1  0  0  0
 11 12  2  0  0  0
 12  1  1  0  0  0
  1  2  1  0  0  0
  2  3  1  0  0  0
  3  4  1  0  0  0
  4 23  1  0  0  0
 23 24  1  0  0  0
 24 25  2  0  0  0
 25 26  1  0  0  0
 26 27  2  0  0  0
 27 28  1  0  0  0
 28 29  2  0  0  0
 29 30  1  0  0  0
 30 31  2  0  0  0
 31 32  1  0  0  0
  4  5  1  0  0  0
  5  6  1  0  0  0
  6  7  1  0  0  0
 12  8  1  0  0  0
  7  1  1  0  0  0
 22 17  1  0  0  0
 32 24  1  0  0  0
 32 27  1  0  0  0
 13 16  1  0  0  0
M  END
> <minimizedAffinity>
-9.68177

> <CNNaffinity>
-1.0000000000

$$$$



 32 36  0  0  0  0  0  0  0  0999 V2000
    7.1567   -9.3904   35.4415 N   0  0  0  0  0  0  0  0  0  0  0  0
    8.5013   -9.5265   36.0189 C   0  0  0  0  0  0  0  0  0  0  0  0
    9.5111   -9.9441   34.9438 C   0  0  0  0  0  0  0  0  0  0  0  0
    9.5279  -11.4591   34.6294 C   0  0  0  0  0  0  0  0  0  0  0  0
    8.1545  -11.9977   34.1629 C   0  0  0  0  0  0  0  0  0  0  0  0
    7.0232  -11.9069   35.2071 C   0  0  0  0  0  0  0  0  0  0  0  0
    6.2917  -10.5548   35.1824 C   0  0  0  0  0  0  0  0  0  0  0  0
    7.5515   -6.9221   34.2177 S   0  0  0  0  0  0  0  0  0  0  0  0
    6.2591   -5.8383   34.3249 C   0  0  0  0  0  0  0  0  0  0  0  0
    5.2291   -6.3660   35.0200 N   0  0  0  0  0  0  0  0  0  0  0  0
    5.4596   -7.6080   35.4367 N   0  0  0  0  0  0  0  0  0  0  0  0
    6.6783   -8.0788   35.0815 C   0  0  0  0  0  0  0  0  0  0  0  0
    6.2206   -4.5125   33.7755 N   0  0  0  0  0  0  0  0  0  0  0  0
    5.1930   -4.0274   32.8959 C   0  0  0  0  0  0  0  0  0  0  0  0
    4.1299   -4.6864   32.7470 O   0  0  0  0  0  0  0  0  0  0  0  0
    6.9473   -3.8940   34.0177 H   0  0  0  0  0  0  0  0  0  0  0  0
    5.3390   -2.7213   32.2093 C   0  0  0  0  0  0  0  0  0  0  0  0
    6.3212   -2.5294   31.2180 C   0  0  0  0  0  0  0  0  0  0  0  0
    6.4648   -1.2856   30.5983 C   0  0  0  0  0  0  0  0  0  0  0  0
    5.6311   -0.2229   30.9559 C   0  0  0  0  0  0  0  0  0  0  0  0
    4.6405   -0.4059   31.9232 C   0  0  0  0  0  0  0  0  0  0  0  0
    4.4885   -1.6493   32.5440 C   0  0  0  0  0  0  0  0  0  0  0  0
   10.1447  -12.3237   35.7597 C   0  0  0  0  0  0  0  0  0  0  0  0
   11.3246  -13.1209   35.2837 C   0  0  0  0  0  0  0  0  0  0  0  0
   11.9733  -12.8816   34.1218 N   0  0  0  0  0  0  0  0  0  0  0  0
   12.9388  -13.7879   34.0086 N   0  0  0  0  0  0  0  0  0  0  0  0
   12.8592  -14.5598   35.1077 C   0  0  0  0  0  0  0  0  0  0  0  0
   13.6722  -15.6417   35.4286 C   0  0  0  0  0  0  0  0  0  0  0  0
   13.4202  -16.2998   36.6426 C   0  0  0  0  0  0  0  0  0  0  0  0
   12.3800  -15.8658   37.4884 C   0  0  0  0  0  0  0  0  0  0  0  0
   11.5950  -14.7682   37.1085 C   0  0  0  0  0  0  0  0  0  0  0  0
   11.8707  -14.1704   35.9221 N   0  0  0  0  0  0  0  0  0  0  0  0
  8  9  1  0  0  0
  9 13  1  0  0  0
 13 14  1  0  0  0
 14 15  2  0  0  0
 14 17  1  0  0  0
 17 18  2  0  0  0
 18 19  1  0  0  0
 19 20  2  0  0  0
 20 21  1  0  0  0
 21 22  2  0  0  0
  9 10  2  0  0  0
 10 11  1  0  0  0
 11 12  2  0  0  0
 12  1  1  0  0  0
  1  2  1  0  0  0
  2  3  1  0  0  0
  3  4  1  0  0  0
  4 23  1  0  0  0
 23 24  1  0  0  0
 24 25  2  0  0  0
 25 26  1  0  0  0
 26 27  2  0  0  0
 27 28  1  0  0  0
 28 29  2  0  0  0
 29 30  1  0  0  0
 30 31  2  0  0  0
 31 32  1  0  0  0
  4  5  1  0  0  0
  5  6  1  0  0  0
  6  7  1  0  0  0
 12  8  1  0  0  0
  7  1  1  0  0  0
 22 17  1  0  0  0
 32 24  1  0  0  0
 32 27  1  0  0  0
 13 16  1  0  0  0
M  END
> <minimizedAffinity>
-9.39381

> <CNNaffinity>
-1.0000000000

$$$$



 32 36  0  0  0  0  0  0  0  0999 V2000
    8.6828   -9.7128   35.8702 N   0  0  0  0  0  0  0  0  0  0  0  0
    7.5624   -8.9360   36.4190 C   0  0  0  0  0  0  0  0  0  0  0  0
    6.3560   -8.9869   35.4746 C   0  0  0  0  0  0  0  0  0  0  0  0
    6.4226   -7.9933   34.2903 C   0  0  0  0  0  0  0  0  0  0  0  0
    7.6739   -8.1904   33.4018 C   0  0  0  0  0  0  0  0  0  0  0  0
    9.0242   -7.9350   34.1015 C   0  0  0  0  0  0  0  0  0  0  0  0
    9.5704   -9.1782   34.8226 C   0  0  0  0  0  0  0  0  0  0  0  0
    9.9093  -11.4897   37.6265 S   0  0  0  0  0  0  0  0  0  0  0  0
    9.5360  -13.1215   37.3941 C   0  0  0  0  0  0  0  0  0  0  0  0
    8.6915  -13.2913   36.3548 N   0  0  0  0  0  0  0  0  0  0  0  0
    8.3378  -12.1477   35.7746 N   0  0  0  0  0  0  0  0  0  0  0  0
    8.9022  -11.0568   36.3439 C   0  0  0  0  0  0  0  0  0  0  0  0
   10.0382  -14.2215   38.1680 N   0  0  0  0  0  0  0  0  0  0  0  0
   11.1927  -15.0017   37.8164 C   0  0  0  0  0  0  0  0  0  0  0  0
   11.9714  -14.6000   36.9114 O   0  0  0  0  0  0  0  0  0  0  0  0
    9.5595  -14.4571   38.9953 H   0  0  0  0  0  0  0  0  0  0  0  0
   11.5185  -16.2459   38.5542 C   0  0  0  0  0  0  0  0  0  0  0  0
   12.5840  -17.0723   38.1467 C   0  0  0  0  0  0  0  0  0  0  0  0
   12.8628  -18.2554   38.8354 C   0  0  0  0  0  0  0  0  0  0  0  0
   12.0872  -18.6254   39.9372 C   0  0  0  0  0  0  0  0  0  0  0  0
   11.0406  -17.8048   40.3631 C   0  0  0  0  0  0  0  0  0  0  0  0
   10.7591  -16.6173   39.6812 C   0  0  0  0  0  0  0  0  0  0  0  0
    6.2256   -6.5123   34.7071 C   0  0  0  0  0  0  0  0  0  0  0  0
    5.3912   -5.7513   33.7177 C   0  0  0  0  0  0  0  0  0  0  0  0
    4.0838   -6.0055   33.4850 N   0  0  0  0  0  0  0  0  0  0  0  0
    3.6760   -5.1680   32.5370 N   0  0  0  0  0  0  0  0  0  0  0  0
    4.7452   -4.4180   32.2138 C   0  0  0  0  0  0  0  0  0  0  0  0
    4.7959   -3.4009   31.2666 C   0  0  0  0  0  0  0  0  0  0  0  0
    6.0199   -2.7338   31.1017 C   0  0  0  0  0  0  0  0  0  0  0  0
    7.1409   -3.0957   31.8750 C   0  0  0  0  0  0  0  0  0  0  0  0
    7.0260   -4.1302   32.8141 C   0  0  0  0  0  0  0  0  0  0  0  0
    5.8253   -4.7512   32.9310 N   0  0  0  0  0  0  0  0  0  0  0  0
  8  9  1  0  0  0
  9 13  1  0  0  0
 13 14  1  0  0  0
 14 15  2  0  0  0
 14 17  1  0  0  0
 17 18  2  0  0  0
 18 19  1  0  0  0
 19 20  2  0  0  0
 20 21  1  0  0  0
 21 22  2  0  0  0
  9 10  2  0  0  0
 10 11  1  0  0  0
 11 12  2  0  0  0
 12  1  1  0  0  0
  1  2  1  0  0  0
  2  3  1  0  0  0
  3  4  1  0  0  0
  4 23  1  0  0  0
 23 24  1  0  0  0
 24 25  2  0  0  0
 25 26  1  0  0  0
 26 27  2  0  0  0
 27 28  1  0  0  0
 28 29  2  0  0  0
 29 30  1  0  0  0
 30 31  2  0  0  0
 31 32  1  0  0  0
  4  5  1  0  0  0
  5  6  1  0  0  0
  6  7  1  0  0  0
 12  8  1  0  0  0
  7  1  1  0  0  0
 22 17  1  0  0  0
 32 24  1  0  0  0
 32 27  1  0  0  0
 13 16  1  0  0  0
M  END
> <minimizedAffinity>
-9.33175

> <CNNaffinity>
-1.0000000000

$$$$



 32 36  0  0  0  0  0  0  0  0999 V2000
   -3.9093   -4.6156   57.5951 N   0  0  0  0  0  0  0  0  0  0  0  0
   -3.5194   -5.1868   56.2984 C   0  0  0  0  0  0  0  0  0  0  0  0
   -4.7517   -5.4113   55.4146 C   0  0  0  0  0  0  0  0  0  0  0  0
   -5.5327   -6.7124   55.7165 C   0  0  0  0  0  0  0  0  0  0  0  0
   -6.0305   -6.7964   57.1791 C   0  0  0  0  0  0  0  0  0  0  0  0
   -4.9215   -6.8410   58.2498 C   0  0  0  0  0  0  0  0  0  0  0  0
   -4.4529   -5.4432   58.6863 C   0  0  0  0  0  0  0  0  0  0  0  0
   -3.1469   -2.4506   59.1691 S   0  0  0  0  0  0  0  0  0  0  0  0
   -3.4499   -0.9246   58.5089 C   0  0  0  0  0  0  0  0  0  0  0  0
   -4.0416   -1.0190   57.2993 N   0  0  0  0  0  0  0  0  0  0  0  0
   -4.2283   -2.2752   56.9037 N   0  0  0  0  0  0  0  0  0  0  0  0
   -3.7914   -3.1930   57.7980 C   0  0  0  0  0  0  0  0  0  0  0  0
   -3.1473    0.3370   59.1236 N   0  0  0  0  0  0  0  0  0  0  0  0
   -4.1333    1.3031   59.5231 C   0  0  0  0  0  0  0  0  0  0  0  0
   -5.3501    0.9799   59.5637 O   0  0  0  0  0  0  0  0  0  0  0  0
   -2.2004    0.5550   59.2821 H   0  0  0  0  0  0  0  0  0  0  0  0
   -3.7291    2.6626   59.9553 C   0  0  0  0  0  0  0  0  0  0  0  0
   -4.1892    3.8065   59.2739 C   0  0  0  0  0  0  0  0  0  0  0  0
   -3.7789    5.0800   59.6758 C   0  0  0  0  0  0  0  0  0  0  0  0
   -2.9106    5.2278   60.7605 C   0  0  0  0  0  0  0  0  0  0  0  0
   -2.4631    4.1028   61.4566 C   0  0  0  0  0  0  0  0  0  0  0  0
   -2.8734    2.8258   61.0625 C   0  0  0  0  0  0  0  0  0  0  0  0
   -4.7924   -8.0012   55.2732 C   0  0  0  0  0  0  0  0  0  0  0  0
   -5.7417   -9.0736   54.8226 C   0  0  0  0  0  0  0  0  0  0  0  0
   -6.1365   -9.2367   53.5397 N   0  0  0  0  0  0  0  0  0  0  0  0
   -6.9919  -10.2535   53.5106 N   0  0  0  0  0  0  0  0  0  0  0  0
   -7.0980  -10.6907   54.7785 C   0  0  0  0  0  0  0  0  0  0  0  0
   -7.8818  -11.7450   55.2351 C   0  0  0  0  0  0  0  0  0  0  0  0
   -7.8284  -12.0414   56.6062 C   0  0  0  0  0  0  0  0  0  0  0  0
   -7.0069  -11.2885   57.4687 C   0  0  0  0  0  0  0  0  0  0  0  0
   -6.2399  -10.2373   56.9473 C   0  0  0  0  0  0  0  0  0  0  0  0
   -6.3318   -9.9830   55.6176 N   0  0  0  0  0  0  0  0  0  0  0  0
  8  9  1  0  0  0
  9 13  1  0  0  0
 13 14  1  0  0  0
 14 15  2  0  0  0
 14 17  1  0  0  0
 17 18  2  0  0  0
 18 19  1  0  0  0
 19 20  2  0  0  0
 20 21  1  0  0  0
 21 22  2  0  0  0
  9 10  2  0  0  0
 10 11  1  0  0  0
 11 12  2  0  0  0
 12  1  1  0  0  0
  1  2  1  0  0  0
  2  3  1  0  0  0
  3  4  1  0  0  0
  4 23  1  0  0  0
 23 24  1  0  0  0
 24 25  2  0  0  0
 25 26  1  0  0  0
 26 27  2  0  0  0
 27 28  1  0  0  0
 28 29  2  0  0  0
 29 30  1  0  0  0
 30 31  2  0  0  0
 31 32  1  0  0  0
  4  5  1  0  0  0
  5  6  1  0  0  0
  6  7  1  0  0  0
 12  8  1  0  0  0
  7  1  1  0  0  0
 22 17  1  0  0  0
 32 24  1  0  0  0
 32 27  1  0  0  0
 13 16  1  0  0  0
M  END
> <minimizedAffinity>
-9.31435

> <CNNaffinity>
-1.0000000000

$$$$



 32 36  0  0  0  0  0  0  0  0999 V2000
   -8.2677   -9.3207   56.2435 N   0  0  0  0  0  0  0  0  0  0  0  0
   -9.3135   -8.7674   55.3717 C   0  0  0  0  0  0  0  0  0  0  0  0
  -10.4658   -8.1964   56.2060 C   0  0  0  0  0  0  0  0  0  0  0  0
  -11.4838   -9.2495   56.7047 C   0  0  0  0  0  0  0  0  0  0  0  0
  -10.8364  -10.3592   57.5669 C   0  0  0  0  0  0  0  0  0  0  0  0
   -9.8047  -11.2422   56.8361 C   0  0  0  0  0  0  0  0  0  0  0  0
   -8.3850  -10.6526   56.8628 C   0  0  0  0  0  0  0  0  0  0  0  0
   -7.0326   -6.8375   56.4768 S   0  0  0  0  0  0  0  0  0  0  0  0
   -5.4002   -6.8715   56.9132 C   0  0  0  0  0  0  0  0  0  0  0  0
   -4.9564   -8.1373   57.0649 N   0  0  0  0  0  0  0  0  0  0  0  0
   -5.8997   -9.0520   56.8579 N   0  0  0  0  0  0  0  0  0  0  0  0
   -7.1029   -8.5223   56.5341 C   0  0  0  0  0  0  0  0  0  0  0  0
   -4.5511   -5.7287   57.0973 N   0  0  0  0  0  0  0  0  0  0  0  0
   -4.2269   -5.1551   58.3745 C   0  0  0  0  0  0  0  0  0  0  0  0
   -4.4940   -5.7843   59.4325 O   0  0  0  0  0  0  0  0  0  0  0  0
   -4.1649   -5.3096   56.2945 H   0  0  0  0  0  0  0  0  0  0  0  0
   -3.5178   -3.8559   58.4625 C   0  0  0  0  0  0  0  0  0  0  0  0
   -2.5210   -3.6385   59.4338 C   0  0  0  0  0  0  0  0  0  0  0  0
   -1.8798   -2.4005   59.5222 C   0  0  0  0  0  0  0  0  0  0  0  0
   -2.2213   -1.3690   58.6436 C   0  0  0  0  0  0  0  0  0  0  0  0
   -3.1938   -1.5783   57.6636 C   0  0  0  0  0  0  0  0  0  0  0  0
   -3.8362   -2.8162   57.5667 C   0  0  0  0  0  0  0  0  0  0  0  0
  -12.3833   -9.8282   55.5813 C   0  0  0  0  0  0  0  0  0  0  0  0
  -13.8358   -9.5194   55.8027 C   0  0  0  0  0  0  0  0  0  0  0  0
  -14.3514   -8.2699   55.7706 N   0  0  0  0  0  0  0  0  0  0  0  0
  -15.6505   -8.3663   56.0343 N   0  0  0  0  0  0  0  0  0  0  0  0
  -15.8995   -9.6755   56.2190 C   0  0  0  0  0  0  0  0  0  0  0  0
  -17.1269  -10.2580   56.5164 C   0  0  0  0  0  0  0  0  0  0  0  0
  -17.1618  -11.6548   56.6522 C   0  0  0  0  0  0  0  0  0  0  0  0
  -15.9885  -12.4181   56.4899 C   0  0  0  0  0  0  0  0  0  0  0  0
  -14.7811  -11.7716   56.1907 C   0  0  0  0  0  0  0  0  0  0  0  0
  -14.7956  -10.4195   56.0781 N   0  0  0  0  0  0  0  0  0  0  0  0
  8  9  1  0  0  0
  9 13  1  0  0  0
 13 14  1  0  0  0
 14 15  2  0  0  0
 14 17  1  0  0  0
 17 18  2  0  0  0
 18 19  1  0  0  0
 19 20  2  0  0  0
 20 21  1  0  0  0
 21 22  2  0  0  0
  9 10  2  0  0  0
 10 11  1  0  0  0
 11 12  2  0  0  0
 12  1  1  0  0  0
  1  2  1  0  0  0
  2  3  1  0  0  0
  3  4  1  0  0  0
  4 23  1  0  0  0
 23 24  1  0  0  0
 24 25  2  0  0  0
 25 26  1  0  0  0
 26 27  2  0  0  0
 27 28  1  0  0  0
 28 29  2  0  0  0
 29 30  1  0  0  0
 30 31  2  0  0  0
 31 32  1  0  0  0
  4  5  1  0  0  0
  5  6  1  0  0  0
  6  7  1  0  0  0
 12  8  1  0  0  0
  7  1  1  0  0  0
 22 17  1  0  0  0
 32 24  1  0  0  0
 32 27  1  0  0  0
 13 16  1  0  0  0
M  END
> <minimizedAffinity>
-9.27400

> <CNNaffinity>
-1.0000000000

$$$$



 32 36  0  0  0  0  0  0  0  0999 V2000
    8.5253  -10.0605   34.8781 N   0  0  0  0  0  0  0  0  0  0  0  0
    9.8288  -10.0378   35.5566 C   0  0  0  0  0  0  0  0  0  0  0  0
   10.8862  -10.7662   34.7191 C   0  0  0  0  0  0  0  0  0  0  0  0
   10.8739  -12.3066   34.8639 C   0  0  0  0  0  0  0  0  0  0  0  0
    9.5139  -12.9411   34.4870 C   0  0  0  0  0  0  0  0  0  0  0  0
    8.3268  -12.5327   35.3827 C   0  0  0  0  0  0  0  0  0  0  0  0
    7.6408  -11.2384   34.9155 C   0  0  0  0  0  0  0  0  0  0  0  0
    8.3161   -7.3001   34.5909 S   0  0  0  0  0  0  0  0  0  0  0  0
    7.5544   -6.7680   33.1791 C   0  0  0  0  0  0  0  0  0  0  0  0
    7.1520   -7.8053   32.4147 N   0  0  0  0  0  0  0  0  0  0  0  0
    7.4622   -8.9902   32.9335 N   0  0  0  0  0  0  0  0  0  0  0  0
    8.1101   -8.9069   34.1194 C   0  0  0  0  0  0  0  0  0  0  0  0
    7.3294   -5.4004   32.8047 N   0  0  0  0  0  0  0  0  0  0  0  0
    6.1231   -4.6703   33.0822 C   0  0  0  0  0  0  0  0  0  0  0  0
    5.2768   -5.1377   33.8896 O   0  0  0  0  0  0  0  0  0  0  0  0
    8.0501   -4.9311   32.3256 H   0  0  0  0  0  0  0  0  0  0  0  0
    5.8907   -3.3357   32.4795 C   0  0  0  0  0  0  0  0  0  0  0  0
    4.8113   -2.5311   32.8941 C   0  0  0  0  0  0  0  0  0  0  0  0
    4.5889   -1.2871   32.2986 C   0  0  0  0  0  0  0  0  0  0  0  0
    5.4396   -0.8304   31.2885 C   0  0  0  0  0  0  0  0  0  0  0  0
    6.5247   -1.6100   30.8824 C   0  0  0  0  0  0  0  0  0  0  0  0
    6.7556   -2.8539   31.4772 C   0  0  0  0  0  0  0  0  0  0  0  0
   11.3960  -12.8083   36.2356 C   0  0  0  0  0  0  0  0  0  0  0  0
   12.0835  -14.1387   36.1283 C   0  0  0  0  0  0  0  0  0  0  0  0
   12.8320  -14.5138   35.0666 N   0  0  0  0  0  0  0  0  0  0  0  0
   13.2591  -15.7514   35.2956 N   0  0  0  0  0  0  0  0  0  0  0  0
   12.7630  -16.1034   36.4956 C   0  0  0  0  0  0  0  0  0  0  0  0
   12.9487  -17.3148   37.1530 C   0  0  0  0  0  0  0  0  0  0  0  0
   12.3484  -17.4632   38.4132 C   0  0  0  0  0  0  0  0  0  0  0  0
   11.5914  -16.4143   38.9722 C   0  0  0  0  0  0  0  0  0  0  0  0
   11.4409  -15.2166   38.2595 C   0  0  0  0  0  0  0  0  0  0  0  0
   12.0322  -15.1237   37.0417 N   0  0  0  0  0  0  0  0  0  0  0  0
  8  9  1  0  0  0
  9 13  1  0  0  0
 13 14  1  0  0  0
 14 15  2  0  0  0
 14 17  1  0  0  0
 17 18  2  0  0  0
 18 19  1  0  0  0
 19 20  2  0  0  0
 20 21  1  0  0  0
 21 22  2  0  0  0
  9 10  2  0  0  0
 10 11  1  0  0  0
 11 12  2  0  0  0
 12  1  1  0  0  0
  1  2  1  0  0  0
  2  3  1  0  0  0
  3  4  1  0  0  0
  4 23  1  0  0  0
 23 24  1  0  0  0
 24 25  2  0  0  0
 25 26  1  0  0  0
 26 27  2  0  0  0
 27 28  1  0  0  0
 28 29  2  0  0  0
 29 30  1  0  0  0
 30 31  2  0  0  0
 31 32  1  0  0  0
  4  5  1  0  0  0
  5  6  1  0  0  0
  6  7  1  0  0  0
 12  8  1  0  0  0
  7  1  1  0  0  0
 22 17  1  0  0  0
 32 24  1  0  0  0
 32 27  1  0  0  0
 13 16  1  0  0  0
M  END
> <minimizedAffinity>
-9.19874

> <CNNaffinity>
-1.0000000000

$$$$



 32 36  0  0  0  0  0  0  0  0999 V2000
    8.0694  -10.4403   34.5770 N   0  0  0  0  0  0  0  0  0  0  0  0
    7.8890   -9.6034   33.3825 C   0  0  0  0  0  0  0  0  0  0  0  0
    8.2773   -8.1501   33.6777 C   0  0  0  0  0  0  0  0  0  0  0  0
    7.1792   -7.3207   34.3852 C   0  0  0  0  0  0  0  0  0  0  0  0
    6.7332   -7.9302   35.7356 C   0  0  0  0  0  0  0  0  0  0  0  0
    6.0670   -9.3179   35.6428 C   0  0  0  0  0  0  0  0  0  0  0  0
    7.0814  -10.4730   35.6697 C   0  0  0  0  0  0  0  0  0  0  0  0
   10.6991  -10.7237   35.4433 S   0  0  0  0  0  0  0  0  0  0  0  0
   11.4293  -12.2062   35.0892 C   0  0  0  0  0  0  0  0  0  0  0  0
   10.5911  -13.0200   34.4129 N   0  0  0  0  0  0  0  0  0  0  0  0
    9.3935  -12.4808   34.2022 N   0  0  0  0  0  0  0  0  0  0  0  0
    9.2691  -11.2298   34.7047 C   0  0  0  0  0  0  0  0  0  0  0  0
   12.7696  -12.5907   35.4312 N   0  0  0  0  0  0  0  0  0  0  0  0
   13.8486  -12.7003   34.4884 C   0  0  0  0  0  0  0  0  0  0  0  0
   13.7196  -12.2291   33.3274 O   0  0  0  0  0  0  0  0  0  0  0  0
   12.9624  -12.7929   36.3752 H   0  0  0  0  0  0  0  0  0  0  0  0
   15.1430  -13.3039   34.8866 C   0  0  0  0  0  0  0  0  0  0  0  0
   15.1935  -14.3695   35.8066 C   0  0  0  0  0  0  0  0  0  0  0  0
   16.4220  -14.9108   36.1929 C   0  0  0  0  0  0  0  0  0  0  0  0
   17.6109  -14.4001   35.6653 C   0  0  0  0  0  0  0  0  0  0  0  0
   17.5732  -13.3570   34.7375 C   0  0  0  0  0  0  0  0  0  0  0  0
   16.3469  -12.8138   34.3433 C   0  0  0  0  0  0  0  0  0  0  0  0
    5.9750   -6.9726   33.4717 C   0  0  0  0  0  0  0  0  0  0  0  0
    5.5513   -5.5393   33.6142 C   0  0  0  0  0  0  0  0  0  0  0  0
    4.9935   -5.0288   34.7352 N   0  0  0  0  0  0  0  0  0  0  0  0
    4.7214   -3.7494   34.4997 N   0  0  0  0  0  0  0  0  0  0  0  0
    5.1225   -3.5066   33.2387 C   0  0  0  0  0  0  0  0  0  0  0  0
    5.0405   -2.2985   32.5546 C   0  0  0  0  0  0  0  0  0  0  0  0
    5.5373   -2.2657   31.2421 C   0  0  0  0  0  0  0  0  0  0  0  0
    6.0930   -3.4220   30.6592 C   0  0  0  0  0  0  0  0  0  0  0  0
    6.1471   -4.6103   31.4009 C   0  0  0  0  0  0  0  0  0  0  0  0
    5.6463   -4.5952   32.6619 N   0  0  0  0  0  0  0  0  0  0  0  0
  8  9  1  0  0  0
  9 13  1  0  0  0
 13 14  1  0  0  0
 14 15  2  0  0  0
 14 17  1  0  0  0
 17 18  2  0  0  0
 18 19  1  0  0  0
 19 20  2  0  0  0
 20 21  1  0  0  0
 21 22  2  0  0  0
  9 10  2  0  0  0
 10 11  1  0  0  0
 11 12  2  0  0  0
 12  1  1  0  0  0
  1  2  1  0  0  0
  2  3  1  0  0  0
  3  4  1  0  0  0
  4 23  1  0  0  0
 23 24  1  0  0  0
 24 25  2  0  0  0
 25 26  1  0  0  0
 26 27  2  0  0  0
 27 28  1  0  0  0
 28 29  2  0  0  0
 29 30  1  0  0  0
 30 31  2  0  0  0
 31 32  1  0  0  0
  4  5  1  0  0  0
  5  6  1  0  0  0
  6  7  1  0  0  0
 12  8  1  0  0  0
  7  1  1  0  0  0
 22 17  1  0  0  0
 32 24  1  0  0  0
 32 27  1  0  0  0
 13 16  1  0  0  0
M  END
> <minimizedAffinity>
-9.18965

> <CNNaffinity>
-1.0000000000

$$$$



 32 36  0  0  0  0  0  0  0  0999 V2000
   -6.9207  -10.0077   56.8507 N   0  0  0  0  0  0  0  0  0  0  0  0
   -7.3160   -8.6460   56.4739 C   0  0  0  0  0  0  0  0  0  0  0  0
   -6.2808   -8.0602   55.5039 C   0  0  0  0  0  0  0  0  0  0  0  0
   -5.0584   -7.3829   56.1849 C   0  0  0  0  0  0  0  0  0  0  0  0
   -4.5773   -8.0499   57.5061 C   0  0  0  0  0  0  0  0  0  0  0  0
   -4.5745   -9.5894   57.5001 C   0  0  0  0  0  0  0  0  0  0  0  0
   -5.9326  -10.1671   57.9226 C   0  0  0  0  0  0  0  0  0  0  0  0
   -7.8669  -12.6082   56.4819 S   0  0  0  0  0  0  0  0  0  0  0  0
   -7.8946  -13.1584   54.8888 C   0  0  0  0  0  0  0  0  0  0  0  0
   -7.4743  -12.2031   54.0322 N   0  0  0  0  0  0  0  0  0  0  0  0
   -7.1178  -11.0718   54.6382 N   0  0  0  0  0  0  0  0  0  0  0  0
   -7.2632  -11.1110   55.9828 C   0  0  0  0  0  0  0  0  0  0  0  0
   -8.3788  -14.4341   54.4496 N   0  0  0  0  0  0  0  0  0  0  0  0
   -9.7590  -14.8290   54.5279 C   0  0  0  0  0  0  0  0  0  0  0  0
  -10.5291  -14.2562   55.3470 O   0  0  0  0  0  0  0  0  0  0  0  0
   -7.7316  -15.0741   54.0744 H   0  0  0  0  0  0  0  0  0  0  0  0
  -10.2832  -15.9323   53.6884 C   0  0  0  0  0  0  0  0  0  0  0  0
  -11.4062  -15.7224   52.8666 C   0  0  0  0  0  0  0  0  0  0  0  0
  -11.8999  -16.7547   52.0638 C   0  0  0  0  0  0  0  0  0  0  0  0
  -11.2753  -18.0035   52.0658 C   0  0  0  0  0  0  0  0  0  0  0  0
  -10.1547  -18.2227   52.8701 C   0  0  0  0  0  0  0  0  0  0  0  0
   -9.6579  -17.1943   53.6771 C   0  0  0  0  0  0  0  0  0  0  0  0
   -5.3421   -5.8799   56.4122 C   0  0  0  0  0  0  0  0  0  0  0  0
   -4.0753   -5.0707   56.4794 C   0  0  0  0  0  0  0  0  0  0  0  0
   -3.2635   -4.8610   55.4175 N   0  0  0  0  0  0  0  0  0  0  0  0
   -2.2502   -4.1053   55.8308 N   0  0  0  0  0  0  0  0  0  0  0  0
   -2.4665   -3.8700   57.1377 C   0  0  0  0  0  0  0  0  0  0  0  0
   -1.6601   -3.1249   57.9940 C   0  0  0  0  0  0  0  0  0  0  0  0
   -2.0687   -3.0135   59.3340 C   0  0  0  0  0  0  0  0  0  0  0  0
   -3.2491   -3.6455   59.7738 C   0  0  0  0  0  0  0  0  0  0  0  0
   -4.0195   -4.3839   58.8617 C   0  0  0  0  0  0  0  0  0  0  0  0
   -3.5895   -4.4557   57.5749 N   0  0  0  0  0  0  0  0  0  0  0  0
  8  9  1  0  0  0
  9 13  1  0  0  0
 13 14  1  0  0  0
 14 15  2  0  0  0
 14 17  1  0  0  0
 17 18  2  0  0  0
 18 19  1  0  0  0
 19 20  2  0  0  0
 20 21  1  0  0  0
 21 22  2  0  0  0
  9 10  2  0  0  0
 10 11  1  0  0  0
 11 12  2  0  0  0
 12  1  1  0  0  0
  1  2  1  0  0  0
  2  3  1  0  0  0
  3  4  1  0  0  0
  4 23  1  0  0  0
 23 24  1  0  0  0
 24 25  2  0  0  0
 25 26  1  0  0  0
 26 27  2  0  0  0
 27 28  1  0  0  0
 28 29  2  0  0  0
 29 30  1  0  0  0
 30 31  2  0  0  0
 31 32  1  0  0  0
  4  5  1  0  0  0
  5  6  1  0  0  0
  6  7  1  0  0  0
 12  8  1  0  0  0
  7  1  1  0  0  0
 22 17  1  0  0  0
 32 24  1  0  0  0
 32 27  1  0  0  0
 13 16  1  0  0  0
M  END
> <minimizedAffinity>
-9.80048

> <CNNaffinity>
-1.0000000000

$$$$



 32 36  0  0  0  0  0  0  0  0999 V2000
    7.3727   -9.2599   34.7994 N   0  0  0  0  0  0  0  0  0  0  0  0
    8.6650   -9.3206   35.4911 C   0  0  0  0  0  0  0  0  0  0  0  0
    9.6782  -10.0775   34.6215 C   0  0  0  0  0  0  0  0  0  0  0  0
    9.6568  -11.6228   34.7895 C   0  0  0  0  0  0  0  0  0  0  0  0
    8.2542  -12.2457   35.0477 C   0  0  0  0  0  0  0  0  0  0  0  0
    7.1068  -11.6451   34.2153 C   0  0  0  0  0  0  0  0  0  0  0  0
    6.4821  -10.4208   34.8989 C   0  0  0  0  0  0  0  0  0  0  0  0
    6.9294   -6.5828   34.1431 S   0  0  0  0  0  0  0  0  0  0  0  0
    6.7060   -6.2578   32.5042 C   0  0  0  0  0  0  0  0  0  0  0  0
    6.8191   -7.3797   31.7616 N   0  0  0  0  0  0  0  0  0  0  0  0
    7.0539   -8.4712   32.4880 N   0  0  0  0  0  0  0  0  0  0  0  0
    7.1430   -8.2267   33.8158 C   0  0  0  0  0  0  0  0  0  0  0  0
    6.5096   -4.9616   31.9247 N   0  0  0  0  0  0  0  0  0  0  0  0
    5.3568   -4.1425   32.1843 C   0  0  0  0  0  0  0  0  0  0  0  0
    4.2884   -4.6756   32.5920 O   0  0  0  0  0  0  0  0  0  0  0  0
    7.2010   -4.6135   31.3164 H   0  0  0  0  0  0  0  0  0  0  0  0
    5.3910   -2.6813   31.9382 C   0  0  0  0  0  0  0  0  0  0  0  0
    6.2767   -2.1463   30.9842 C   0  0  0  0  0  0  0  0  0  0  0  0
    6.3073   -0.7706   30.7385 C   0  0  0  0  0  0  0  0  0  0  0  0
    5.4506    0.0846   31.4348 C   0  0  0  0  0  0  0  0  0  0  0  0
    4.5607   -0.4343   32.3778 C   0  0  0  0  0  0  0  0  0  0  0  0
    4.5274   -1.8095   32.6294 C   0  0  0  0  0  0  0  0  0  0  0  0
   10.6485  -12.0507   35.8960 C   0  0  0  0  0  0  0  0  0  0  0  0
   11.6328  -13.0775   35.4049 C   0  0  0  0  0  0  0  0  0  0  0  0
   12.2710  -12.9938   34.2150 N   0  0  0  0  0  0  0  0  0  0  0  0
   13.0633  -14.0567   34.1096 N   0  0  0  0  0  0  0  0  0  0  0  0
   12.8910  -14.7665   35.2395 C   0  0  0  0  0  0  0  0  0  0  0  0
   13.5145  -15.9662   35.5722 C   0  0  0  0  0  0  0  0  0  0  0  0
   13.1799  -16.5487   36.8067 C   0  0  0  0  0  0  0  0  0  0  0  0
   12.2420  -15.9284   37.6562 C   0  0  0  0  0  0  0  0  0  0  0  0
   11.6467  -14.7191   37.2637 C   0  0  0  0  0  0  0  0  0  0  0  0
   12.0083  -14.1895   36.0660 N   0  0  0  0  0  0  0  0  0  0  0  0
  8  9  1  0  0  0
  9 13  1  0  0  0
 13 14  1  0  0  0
 14 15  2  0  0  0
 14 17  1  0  0  0
 17 18  2  0  0  0
 18 19  1  0  0  0
 19 20  2  0  0  0
 20 21  1  0  0  0
 21 22  2  0  0  0
  9 10  2  0  0  0
 10 11  1  0  0  0
 11 12  2  0  0  0
 12  1  1  0  0  0
  1  2  1  0  0  0
  2  3  1  0  0  0
  3  4  1  0  0  0
  4 23  1  0  0  0
 23 24  1  0  0  0
 24 25  2  0  0  0
 25 26  1  0  0  0
 26 27  2  0  0  0
 27 28  1  0  0  0
 28 29  2  0  0  0
 29 30  1  0  0  0
 30 31  2  0  0  0
 31 32  1  0  0  0
  4  5  1  0  0  0
  5  6  1  0  0  0
  6  7  1  0  0  0
 12  8  1  0  0  0
  7  1  1  0  0  0
 22 17  1  0  0  0
 32 24  1  0  0  0
 32 27  1  0  0  0
 13 16  1  0  0  0
M  END
> <minimizedAffinity>
-9.76895

> <CNNaffinity>
-1.0000000000

$$$$



 32 36  0  0  0  0  0  0  0  0999 V2000
   -9.5264  -12.6487   55.0693 N   0  0  0  0  0  0  0  0  0  0  0  0
  -10.5759  -11.9097   54.3588 C   0  0  0  0  0  0  0  0  0  0  0  0
  -11.5271  -11.2634   55.3753 C   0  0  0  0  0  0  0  0  0  0  0  0
  -12.6805  -12.1828   55.8660 C   0  0  0  0  0  0  0  0  0  0  0  0
  -12.3171  -13.6894   56.0088 C   0  0  0  0  0  0  0  0  0  0  0  0
  -10.9291  -13.9746   56.6105 C   0  0  0  0  0  0  0  0  0  0  0  0
   -9.8332  -14.0048   55.5359 C   0  0  0  0  0  0  0  0  0  0  0  0
   -8.3749  -10.6499   56.6418 S   0  0  0  0  0  0  0  0  0  0  0  0
   -6.6985  -10.5090   56.5354 C   0  0  0  0  0  0  0  0  0  0  0  0
   -6.1792  -11.4411   55.7079 N   0  0  0  0  0  0  0  0  0  0  0  0
   -7.1010  -12.2291   55.1572 N   0  0  0  0  0  0  0  0  0  0  0  0
   -8.3628  -11.9403   55.5510 C   0  0  0  0  0  0  0  0  0  0  0  0
   -5.8843   -9.5927   57.2784 N   0  0  0  0  0  0  0  0  0  0  0  0
   -5.4706   -8.3109   56.7755 C   0  0  0  0  0  0  0  0  0  0  0  0
   -5.4504   -8.1029   55.5312 O   0  0  0  0  0  0  0  0  0  0  0  0
   -5.5928   -9.8551   58.1814 H   0  0  0  0  0  0  0  0  0  0  0  0
   -5.0245   -7.2399   57.6979 C   0  0  0  0  0  0  0  0  0  0  0  0
   -4.7525   -7.5370   59.0463 C   0  0  0  0  0  0  0  0  0  0  0  0
   -4.3209   -6.5347   59.9199 C   0  0  0  0  0  0  0  0  0  0  0  0
   -4.1484   -5.2286   59.4570 C   0  0  0  0  0  0  0  0  0  0  0  0
   -4.4063   -4.9220   58.1191 C   0  0  0  0  0  0  0  0  0  0  0  0
   -4.8407   -5.9202   57.2413 C   0  0  0  0  0  0  0  0  0  0  0  0
  -13.9199  -12.0112   54.9575 C   0  0  0  0  0  0  0  0  0  0  0  0
  -15.0326  -11.2760   55.6543 C   0  0  0  0  0  0  0  0  0  0  0  0
  -14.8524  -10.1288   56.3486 N   0  0  0  0  0  0  0  0  0  0  0  0
  -16.0381   -9.7561   56.8215 N   0  0  0  0  0  0  0  0  0  0  0  0
  -16.9172  -10.6853   56.4045 C   0  0  0  0  0  0  0  0  0  0  0  0
  -18.2849  -10.7135   56.6643 C   0  0  0  0  0  0  0  0  0  0  0  0
  -19.0214  -11.7885   56.1383 C   0  0  0  0  0  0  0  0  0  0  0  0
  -18.3788  -12.7916   55.3852 C   0  0  0  0  0  0  0  0  0  0  0  0
  -16.9961  -12.7074   55.1583 C   0  0  0  0  0  0  0  0  0  0  0  0
  -16.3278  -11.6452   55.6789 N   0  0  0  0  0  0  0  0  0  0  0  0
  8  9  1  0  0  0
  9 13  1  0  0  0
 13 14  1  0  0  0
 14 15  2  0  0  0
 14 17  1  0  0  0
 17 18  2  0  0  0
 18 19  1  0  0  0
 19 20  2  0  0  0
 20 21  1  0  0  0
 21 22  2  0  0  0
  9 10  2  0  0  0
 10 11  1  0  0  0
 11 12  2  0  0  0
 12  1  1  0  0  0
  1  2  1  0  0  0
  2  3  1  0  0  0
  3  4  1  0  0  0
  4 23  1  0  0  0
 23 24  1  0  0  0
 24 25  2  0  0  0
 25 26  1  0  0  0
 26 27  2  0  0  0
 27 28  1  0  0  0
 28 29  2  0  0  0
 29 30  1  0  0  0
 30 31  2  0  0  0
 31 32  1  0  0  0
  4  5  1  0  0  0
  5  6  1  0  0  0
  6  7  1  0  0  0
 12  8  1  0  0  0
  7  1  1  0  0  0
 22 17  1  0  0  0
 32 24  1  0  0  0
 32 27  1  0  0  0
 13 16  1  0  0  0
M  END
> <minimizedAffinity>
-9.53920

> <CNNaffinity>
-1.0000000000

$$$$



 32 36  0  0  0  0  0  0  0  0999 V2000
    5.6363   -6.4374   33.3684 N   0  0  0  0  0  0  0  0  0  0  0  0
    5.5171   -6.6888   34.8089 C   0  0  0  0  0  0  0  0  0  0  0  0
    6.8305   -6.3100   35.5070 C   0  0  0  0  0  0  0  0  0  0  0  0
    7.9063   -7.4320   35.5268 C   0  0  0  0  0  0  0  0  0  0  0  0
    7.9455   -8.3401   34.2635 C   0  0  0  0  0  0  0  0  0  0  0  0
    7.7665   -7.6055   32.9224 C   0  0  0  0  0  0  0  0  0  0  0  0
    6.2866   -7.4593   32.5416 C   0  0  0  0  0  0  0  0  0  0  0  0
    6.5943   -3.9771   32.4610 S   0  0  0  0  0  0  0  0  0  0  0  0
    5.4196   -2.8400   32.0506 C   0  0  0  0  0  0  0  0  0  0  0  0
    4.1757   -3.3429   32.2020 N   0  0  0  0  0  0  0  0  0  0  0  0
    4.1651   -4.5948   32.6566 N   0  0  0  0  0  0  0  0  0  0  0  0
    5.4015   -5.1056   32.8595 C   0  0  0  0  0  0  0  0  0  0  0  0
    5.6671   -1.5315   31.5204 N   0  0  0  0  0  0  0  0  0  0  0  0
    5.2578   -0.3191   32.1760 C   0  0  0  0  0  0  0  0  0  0  0  0
    4.3190   -0.3485   33.0185 O   0  0  0  0  0  0  0  0  0  0  0  0
    6.1427   -1.4590   30.6615 H   0  0  0  0  0  0  0  0  0  0  0  0
    5.8951    0.9773   31.8443 C   0  0  0  0  0  0  0  0  0  0  0  0
    6.6655    1.1067   30.6736 C   0  0  0  0  0  0  0  0  0  0  0  0
    7.2608    2.3288   30.3483 C   0  0  0  0  0  0  0  0  0  0  0  0
    7.0880    3.4359   31.1815 C   0  0  0  0  0  0  0  0  0  0  0  0
    6.3187    3.3236   32.3417 C   0  0  0  0  0  0  0  0  0  0  0  0
    5.7229    2.1028   32.6734 C   0  0  0  0  0  0  0  0  0  0  0  0
    7.7544   -8.2912   36.8035 C   0  0  0  0  0  0  0  0  0  0  0  0
    7.0549   -9.5944   36.5264 C   0  0  0  0  0  0  0  0  0  0  0  0
    7.6775  -10.6870   36.0274 N   0  0  0  0  0  0  0  0  0  0  0  0
    6.7679  -11.6507   35.9160 N   0  0  0  0  0  0  0  0  0  0  0  0
    5.6085  -11.1241   36.3505 C   0  0  0  0  0  0  0  0  0  0  0  0
    4.3743  -11.7657   36.4127 C   0  0  0  0  0  0  0  0  0  0  0  0
    3.2822  -11.0225   36.8922 C   0  0  0  0  0  0  0  0  0  0  0  0
    3.4512   -9.6792   37.2833 C   0  0  0  0  0  0  0  0  0  0  0  0
    4.7215   -9.0880   37.1963 C   0  0  0  0  0  0  0  0  0  0  0  0
    5.7487   -9.8484   36.7354 N   0  0  0  0  0  0  0  0  0  0  0  0
  8  9  1  0  0  0
  9 13  1  0  0  0
 13 14  1  0  0  0
 14 15  2  0  0  0
 14 17  1  0  0  0
 17 18  2  0  0  0
 18 19  1  0  0  0
 19 20  2  0  0  0
 20 21  1  0  0  0
 21 22  2  0  0  0
  9 10  2  0  0  0
 10 11  1  0  0  0
 11 12  2  0  0  0
 12  1  1  0  0  0
  1  2  1  0  0  0
  2  3  1  0  0  0
  3  4  1  0  0  0
  4 23  1  0  0  0
 23 24  1  0  0  0
 24 25  2  0  0  0
 25 26  1  0  0  0
 26 27  2  0  0  0
 27 28  1  0  0  0
 28 29  2  0  0  0
 29 30  1  0  0  0
 30 31  2  0  0  0
 31 32  1  0  0  0
  4  5  1  0  0  0
  5  6  1  0  0  0
  6  7  1  0  0  0
 12  8  1  0  0  0
  7  1  1  0  0  0
 22 17  1  0  0  0
 32 24  1  0  0  0
 32 27  1  0  0  0
 13 16  1  0  0  0
M  END
> <minimizedAffinity>
-9.51378

> <CNNaffinity>
-1.0000000000

$$$$



 32 36  0  0  0  0  0  0  0  0999 V2000
   -6.5367   -6.5155   55.1044 N   0  0  0  0  0  0  0  0  0  0  0  0
   -5.5445   -5.6594   54.4449 C   0  0  0  0  0  0  0  0  0  0  0  0
   -4.1390   -6.0254   54.9411 C   0  0  0  0  0  0  0  0  0  0  0  0
   -3.7022   -5.3100   56.2503 C   0  0  0  0  0  0  0  0  0  0  0  0
   -4.8381   -5.0613   57.2847 C   0  0  0  0  0  0  0  0  0  0  0  0
   -5.8356   -6.2216   57.4545 C   0  0  0  0  0  0  0  0  0  0  0  0
   -6.9905   -6.1373   56.4467 C   0  0  0  0  0  0  0  0  0  0  0  0
   -7.8314   -8.9843   55.2566 S   0  0  0  0  0  0  0  0  0  0  0  0
   -7.4616  -10.0819   54.0319 C   0  0  0  0  0  0  0  0  0  0  0  0
   -6.6017   -9.5485   53.1380 N   0  0  0  0  0  0  0  0  0  0  0  0
   -6.2319   -8.3050   53.4397 N   0  0  0  0  0  0  0  0  0  0  0  0
   -6.8042   -7.8313   54.5705 C   0  0  0  0  0  0  0  0  0  0  0  0
   -8.0328  -11.3871   53.8740 N   0  0  0  0  0  0  0  0  0  0  0  0
   -7.7894  -12.4751   54.7817 C   0  0  0  0  0  0  0  0  0  0  0  0
   -6.7600  -12.4642   55.5112 O   0  0  0  0  0  0  0  0  0  0  0  0
   -8.6233  -11.5471   53.1026 H   0  0  0  0  0  0  0  0  0  0  0  0
   -8.7103  -13.6349   54.8431 C   0  0  0  0  0  0  0  0  0  0  0  0
   -8.2243  -14.9356   54.6135 C   0  0  0  0  0  0  0  0  0  0  0  0
   -9.0842  -16.0356   54.6803 C   0  0  0  0  0  0  0  0  0  0  0  0
  -10.4346  -15.8516   54.9843 C   0  0  0  0  0  0  0  0  0  0  0  0
  -10.9281  -14.5670   55.2230 C   0  0  0  0  0  0  0  0  0  0  0  0
  -10.0729  -13.4627   55.1550 C   0  0  0  0  0  0  0  0  0  0  0  0
   -2.9784   -3.9852   55.9158 C   0  0  0  0  0  0  0  0  0  0  0  0
   -2.4576   -3.2998   57.1500 C   0  0  0  0  0  0  0  0  0  0  0  0
   -1.3450   -3.6931   57.8118 N   0  0  0  0  0  0  0  0  0  0  0  0
   -1.1778   -2.8673   58.8407 N   0  0  0  0  0  0  0  0  0  0  0  0
   -2.1935   -1.9867   58.7838 C   0  0  0  0  0  0  0  0  0  0  0  0
   -2.4341   -0.9352   59.6643 C   0  0  0  0  0  0  0  0  0  0  0  0
   -3.5661   -0.1375   59.4256 C   0  0  0  0  0  0  0  0  0  0  0  0
   -4.4149   -0.4133   58.3349 C   0  0  0  0  0  0  0  0  0  0  0  0
   -4.1190   -1.4889   57.4827 C   0  0  0  0  0  0  0  0  0  0  0  0
   -3.0090   -2.2262   57.7480 N   0  0  0  0  0  0  0  0  0  0  0  0
  8  9  1  0  0  0
  9 13  1  0  0  0
 13 14  1  0  0  0
 14 15  2  0  0  0
 14 17  1  0  0  0
 17 18  2  0  0  0
 18 19  1  0  0  0
 19 20  2  0  0  0
 20 21  1  0  0  0
 21 22  2  0  0  0
  9 10  2  0  0  0
 10 11  1  0  0  0
 11 12  2  0  0  0
 12  1  1  0  0  0
  1  2  1  0  0  0
  2  3  1  0  0  0
  3  4  1  0  0  0
  4 23  1  0  0  0
 23 24  1  0  0  0
 24 25  2  0  0  0
 25 26  1  0  0  0
 26 27  2  0  0  0
 27 28  1  0  0  0
 28 29  2  0  0  0
 29 30  1  0  0  0
 30 31  2  0  0  0
 31 32  1  0  0  0
  4  5  1  0  0  0
  5  6  1  0  0  0
  6  7  1  0  0  0
 12  8  1  0  0  0
  7  1  1  0  0  0
 22 17  1  0  0  0
 32 24  1  0  0  0
 32 27  1  0  0  0
 13 16  1  0  0  0
M  END
> <minimizedAffinity>
-9.49804

> <CNNaffinity>
-1.0000000000

$$$$



 32 36  0  0  0  0  0  0  0  0999 V2000
    6.2866   -8.8508   36.3735 N   0  0  0  0  0  0  0  0  0  0  0  0
    7.6250   -9.1043   36.9184 C   0  0  0  0  0  0  0  0  0  0  0  0
    8.5345   -9.6551   35.8116 C   0  0  0  0  0  0  0  0  0  0  0  0
    8.4604  -11.1950   35.6120 C   0  0  0  0  0  0  0  0  0  0  0  0
    7.0568  -11.8292   35.8351 C   0  0  0  0  0  0  0  0  0  0  0  0
    5.8750  -11.0213   35.2687 C   0  0  0  0  0  0  0  0  0  0  0  0
    5.3578   -9.9812   36.2724 C   0  0  0  0  0  0  0  0  0  0  0  0
    7.1678   -6.4107   35.3423 S   0  0  0  0  0  0  0  0  0  0  0  0
    5.9830   -5.4456   34.6307 C   0  0  0  0  0  0  0  0  0  0  0  0
    4.7778   -6.0538   34.6501 N   0  0  0  0  0  0  0  0  0  0  0  0
    4.7994   -7.2479   35.2397 N   0  0  0  0  0  0  0  0  0  0  0  0
    6.0256   -7.6079   35.6843 C   0  0  0  0  0  0  0  0  0  0  0  0
    6.2016   -4.1791   33.9961 N   0  0  0  0  0  0  0  0  0  0  0  0
    6.2348   -4.0012   32.5698 C   0  0  0  0  0  0  0  0  0  0  0  0
    6.4843   -4.9858   31.8213 O   0  0  0  0  0  0  0  0  0  0  0  0
    6.3362   -3.3887   34.5674 H   0  0  0  0  0  0  0  0  0  0  0  0
    6.0224   -2.6649   31.9648 C   0  0  0  0  0  0  0  0  0  0  0  0
    5.0403   -1.8018   32.4856 C   0  0  0  0  0  0  0  0  0  0  0  0
    4.8413   -0.5358   31.9276 C   0  0  0  0  0  0  0  0  0  0  0  0
    5.6238   -0.1140   30.8507 C   0  0  0  0  0  0  0  0  0  0  0  0
    6.6079   -0.9572   30.3299 C   0  0  0  0  0  0  0  0  0  0  0  0
    6.8097   -2.2258   30.8826 C   0  0  0  0  0  0  0  0  0  0  0  0
    9.5158  -11.8969   36.4977 C   0  0  0  0  0  0  0  0  0  0  0  0
   10.5859  -12.5653   35.6776 C   0  0  0  0  0  0  0  0  0  0  0  0
   10.6482  -13.9013   35.4737 N   0  0  0  0  0  0  0  0  0  0  0  0
   11.7068  -14.1405   34.7052 N   0  0  0  0  0  0  0  0  0  0  0  0
   12.2679  -12.9432   34.4564 C   0  0  0  0  0  0  0  0  0  0  0  0
   13.4079  -12.7002   33.6948 C   0  0  0  0  0  0  0  0  0  0  0  0
   13.8312  -11.3659   33.5711 C   0  0  0  0  0  0  0  0  0  0  0  0
   13.1178  -10.3303   34.2074 C   0  0  0  0  0  0  0  0  0  0  0  0
   11.9756  -10.6397   34.9626 C   0  0  0  0  0  0  0  0  0  0  0  0
   11.5997  -11.9426   35.0460 N   0  0  0  0  0  0  0  0  0  0  0  0
  8  9  1  0  0  0
  9 13  1  0  0  0
 13 14  1  0  0  0
 14 15  2  0  0  0
 14 17  1  0  0  0
 17 18  2  0  0  0
 18 19  1  0  0  0
 19 20  2  0  0  0
 20 21  1  0  0  0
 21 22  2  0  0  0
  9 10  2  0  0  0
 10 11  1  0  0  0
 11 12  2  0  0  0
 12  1  1  0  0  0
  1  2  1  0  0  0
  2  3  1  0  0  0
  3  4  1  0  0  0
  4 23  1  0  0  0
 23 24  1  0  0  0
 24 25  2  0  0  0
 25 26  1  0  0  0
 26 27  2  0  0  0
 27 28  1  0  0  0
 28 29  2  0  0  0
 29 30  1  0  0  0
 30 31  2  0  0  0
 31 32  1  0  0  0
  4  5  1  0  0  0
  5  6  1  0  0  0
  6  7  1  0  0  0
 12  8  1  0  0  0
  7  1  1  0  0  0
 22 17  1  0  0  0
 32 24  1  0  0  0
 32 27  1  0  0  0
 13 16  1  0  0  0
M  END
> <minimizedAffinity>
-9.42941

> <CNNaffinity>
-1.0000000000

$$$$



 32 36  0  0  0  0  0  0  0  0999 V2000
   -7.1795   -8.4343   54.6219 N   0  0  0  0  0  0  0  0  0  0  0  0
   -5.8574   -7.8009   54.6800 C   0  0  0  0  0  0  0  0  0  0  0  0
   -5.4633   -7.5678   56.1450 C   0  0  0  0  0  0  0  0  0  0  0  0
   -5.9886   -6.2397   56.7588 C   0  0  0  0  0  0  0  0  0  0  0  0
   -7.3919   -5.7853   56.2625 C   0  0  0  0  0  0  0  0  0  0  0  0
   -8.4303   -6.9118   56.1115 C   0  0  0  0  0  0  0  0  0  0  0  0
   -8.3619   -7.5733   54.7278 C   0  0  0  0  0  0  0  0  0  0  0  0
   -8.6464  -10.7994   54.4014 S   0  0  0  0  0  0  0  0  0  0  0  0
   -7.8598  -12.1995   54.9135 C   0  0  0  0  0  0  0  0  0  0  0  0
   -6.6009  -11.9335   55.3225 N   0  0  0  0  0  0  0  0  0  0  0  0
   -6.2851  -10.6416   55.2499 N   0  0  0  0  0  0  0  0  0  0  0  0
   -7.2858   -9.8677   54.7699 C   0  0  0  0  0  0  0  0  0  0  0  0
   -8.3903  -13.5298   54.8541 N   0  0  0  0  0  0  0  0  0  0  0  0
   -8.5752  -14.2565   53.6274 C   0  0  0  0  0  0  0  0  0  0  0  0
   -8.6716  -13.6300   52.5365 O   0  0  0  0  0  0  0  0  0  0  0  0
   -8.6415  -13.9694   55.6984 H   0  0  0  0  0  0  0  0  0  0  0  0
   -8.6980  -15.7336   53.6295 C   0  0  0  0  0  0  0  0  0  0  0  0
   -8.4184  -16.4673   52.4616 C   0  0  0  0  0  0  0  0  0  0  0  0
   -8.5214  -17.8613   52.4586 C   0  0  0  0  0  0  0  0  0  0  0  0
   -8.8960  -18.5386   53.6209 C   0  0  0  0  0  0  0  0  0  0  0  0
   -9.1677  -17.8232   54.7892 C   0  0  0  0  0  0  0  0  0  0  0  0
   -9.0687  -16.4284   54.7973 C   0  0  0  0  0  0  0  0  0  0  0  0
   -4.9520   -5.1114   56.5504 C   0  0  0  0  0  0  0  0  0  0  0  0
   -4.3716   -4.6312   57.8530 C   0  0  0  0  0  0  0  0  0  0  0  0
   -4.2773   -5.4026   58.9604 N   0  0  0  0  0  0  0  0  0  0  0  0
   -3.7150   -4.6668   59.9148 N   0  0  0  0  0  0  0  0  0  0  0  0
   -3.4779   -3.4607   59.3678 C   0  0  0  0  0  0  0  0  0  0  0  0
   -2.9014   -2.3601   59.9965 C   0  0  0  0  0  0  0  0  0  0  0  0
   -2.7546   -1.1856   59.2389 C   0  0  0  0  0  0  0  0  0  0  0  0
   -3.1872   -1.1438   57.8983 C   0  0  0  0  0  0  0  0  0  0  0  0
   -3.7618   -2.2870   57.3208 C   0  0  0  0  0  0  0  0  0  0  0  0
   -3.8746   -3.4017   58.0893 N   0  0  0  0  0  0  0  0  0  0  0  0
  8  9  1  0  0  0
  9 13  1  0  0  0
 13 14  1  0  0  0
 14 15  2  0  0  0
 14 17  1  0  0  0
 17 18  2  0  0  0
 18 19  1  0  0  0
 19 20  2  0  0  0
 20 21  1  0  0  0
 21 22  2  0  0  0
  9 10  2  0  0  0
 10 11  1  0  0  0
 11 12  2  0  0  0
 12  1  1  0  0  0
  1  2  1  0  0  0
  2  3  1  0  0  0
  3  4  1  0  0  0
  4 23  1  0  0  0
 23 24  1  0  0  0
 24 25  2  0  0  0
 25 26  1  0  0  0
 26 27  2  0  0  0
 27 28  1  0  0  0
 28 29  2  0  0  0
 29 30  1  0  0  0
 30 31  2  0  0  0
 31 32  1  0  0  0
  4  5  1  0  0  0
  5  6  1  0  0  0
  6  7  1  0  0  0
 12  8  1  0  0  0
  7  1  1  0  0  0
 22 17  1  0  0  0
 32 24  1  0  0  0
 32 27  1  0  0  0
 13 16  1  0  0  0
M  END
> <minimizedAffinity>
-9.28052

> <CNNaffinity>
-1.0000000000

$$$$



 32 36  0  0  0  0  0  0  0  0999 V2000
   -4.6808   -7.8361   56.0774 N   0  0  0  0  0  0  0  0  0  0  0  0
   -5.6018   -8.3249   55.0453 C   0  0  0  0  0  0  0  0  0  0  0  0
   -7.0188   -8.4247   55.6266 C   0  0  0  0  0  0  0  0  0  0  0  0
   -7.3308   -9.7591   56.3604 C   0  0  0  0  0  0  0  0  0  0  0  0
   -6.1383  -10.3858   57.1398 C   0  0  0  0  0  0  0  0  0  0  0  0
   -5.2614   -9.3838   57.9127 C   0  0  0  0  0  0  0  0  0  0  0  0
   -4.1415   -8.8062   57.0359 C   0  0  0  0  0  0  0  0  0  0  0  0
   -4.8129   -5.6400   57.7961 S   0  0  0  0  0  0  0  0  0  0  0  0
   -4.5289   -4.1372   57.0873 C   0  0  0  0  0  0  0  0  0  0  0  0
   -4.2414   -4.2605   55.7739 N   0  0  0  0  0  0  0  0  0  0  0  0
   -4.2718   -5.5207   55.3438 N   0  0  0  0  0  0  0  0  0  0  0  0
   -4.5713   -6.4149   56.3141 C   0  0  0  0  0  0  0  0  0  0  0  0
   -4.4980   -2.8784   57.7724 N   0  0  0  0  0  0  0  0  0  0  0  0
   -3.2825   -2.2138   58.1569 C   0  0  0  0  0  0  0  0  0  0  0  0
   -2.2178   -2.8788   58.2835 O   0  0  0  0  0  0  0  0  0  0  0  0
   -5.3549   -2.4459   57.9913 H   0  0  0  0  0  0  0  0  0  0  0  0
   -3.2701   -0.7609   58.4501 C   0  0  0  0  0  0  0  0  0  0  0  0
   -3.3673    0.1722   57.4011 C   0  0  0  0  0  0  0  0  0  0  0  0
   -3.3673    1.5439   57.6703 C   0  0  0  0  0  0  0  0  0  0  0  0
   -3.2786    1.9992   58.9874 C   0  0  0  0  0  0  0  0  0  0  0  0
   -3.1905    1.0838   60.0385 C   0  0  0  0  0  0  0  0  0  0  0  0
   -3.1876   -0.2896   59.7748 C   0  0  0  0  0  0  0  0  0  0  0  0
   -7.9244  -10.7852   55.3676 C   0  0  0  0  0  0  0  0  0  0  0  0
   -9.1083  -11.5111   55.9472 C   0  0  0  0  0  0  0  0  0  0  0  0
   -9.9767  -10.9501   56.8198 N   0  0  0  0  0  0  0  0  0  0  0  0
  -10.8945  -11.8656   57.1162 N   0  0  0  0  0  0  0  0  0  0  0  0
  -10.5656  -12.9667   56.4166 C   0  0  0  0  0  0  0  0  0  0  0  0
  -11.2405  -14.1846   56.4151 C   0  0  0  0  0  0  0  0  0  0  0  0
  -10.7162  -15.2139   55.6146 C   0  0  0  0  0  0  0  0  0  0  0  0
   -9.5476  -15.0015   54.8560 C   0  0  0  0  0  0  0  0  0  0  0  0
   -8.9120  -13.7506   54.9003 C   0  0  0  0  0  0  0  0  0  0  0  0
   -9.4606  -12.7836   55.6812 N   0  0  0  0  0  0  0  0  0  0  0  0
  8  9  1  0  0  0
  9 13  1  0  0  0
 13 14  1  0  0  0
 14 15  2  0  0  0
 14 17  1  0  0  0
 17 18  2  0  0  0
 18 19  1  0  0  0
 19 20  2  0  0  0
 20 21  1  0  0  0
 21 22  2  0  0  0
  9 10  2  0  0  0
 10 11  1  0  0  0
 11 12  2  0  0  0
 12  1  1  0  0  0
  1  2  1  0  0  0
  2  3  1  0  0  0
  3  4  1  0  0  0
  4 23  1  0  0  0
 23 24  1  0  0  0
 24 25  2  0  0  0
 25 26  1  0  0  0
 26 27  2  0  0  0
 27 28  1  0  0  0
 28 29  2  0  0  0
 29 30  1  0  0  0
 30 31  2  0  0  0
 31 32  1  0  0  0
  4  5  1  0  0  0
  5  6  1  0  0  0
  6  7  1  0  0  0
 12  8  1  0  0  0
  7  1  1  0  0  0
 22 17  1  0  0  0
 32 24  1  0  0  0
 32 27  1  0  0  0
 13 16  1  0  0  0
M  END
> <minimizedAffinity>
-9.22849

> <CNNaffinity>
-1.0000000000

$$$$



 32 36  0  0  0  0  0  0  0  0999 V2000
    9.2410   -8.9365   35.8902 N   0  0  0  0  0  0  0  0  0  0  0  0
    8.7014   -7.6762   36.4125 C   0  0  0  0  0  0  0  0  0  0  0  0
    7.1684   -7.7460   36.4405 C   0  0  0  0  0  0  0  0  0  0  0  0
    6.4725   -7.3473   35.1088 C   0  0  0  0  0  0  0  0  0  0  0  0
    7.2332   -7.7508   33.8125 C   0  0  0  0  0  0  0  0  0  0  0  0
    7.8799   -9.1477   33.8398 C   0  0  0  0  0  0  0  0  0  0  0  0
    9.2944   -9.1133   34.4353 C   0  0  0  0  0  0  0  0  0  0  0  0
   10.5630  -11.2849   36.6189 S   0  0  0  0  0  0  0  0  0  0  0  0
    9.9736  -12.0605   37.9946 C   0  0  0  0  0  0  0  0  0  0  0  0
    8.9524  -11.3712   38.5470 N   0  0  0  0  0  0  0  0  0  0  0  0
    8.6366  -10.2667   37.8730 N   0  0  0  0  0  0  0  0  0  0  0  0
    9.4122  -10.0587   36.7840 C   0  0  0  0  0  0  0  0  0  0  0  0
   10.5153  -13.2490   38.5852 N   0  0  0  0  0  0  0  0  0  0  0  0
   10.0528  -14.5734   38.2704 C   0  0  0  0  0  0  0  0  0  0  0  0
    8.8985  -14.7357   37.7875 O   0  0  0  0  0  0  0  0  0  0  0  0
   11.2428  -13.1532   39.2415 H   0  0  0  0  0  0  0  0  0  0  0  0
   10.8980  -15.7595   38.5456 C   0  0  0  0  0  0  0  0  0  0  0  0
   12.1428  -15.9038   37.9052 C   0  0  0  0  0  0  0  0  0  0  0  0
   12.9505  -17.0140   38.1676 C   0  0  0  0  0  0  0  0  0  0  0  0
   12.5298  -17.9871   39.0764 C   0  0  0  0  0  0  0  0  0  0  0  0
   11.3007  -17.8518   39.7255 C   0  0  0  0  0  0  0  0  0  0  0  0
   10.4875  -16.7444   39.4650 C   0  0  0  0  0  0  0  0  0  0  0  0
    6.1645   -5.8320   35.1033 C   0  0  0  0  0  0  0  0  0  0  0  0
    5.3760   -5.4212   33.8892 C   0  0  0  0  0  0  0  0  0  0  0  0
    4.1351   -5.8828   33.6109 N   0  0  0  0  0  0  0  0  0  0  0  0
    3.7400   -5.3115   32.4769 N   0  0  0  0  0  0  0  0  0  0  0  0
    4.7500   -4.5123   32.0877 C   0  0  0  0  0  0  0  0  0  0  0  0
    4.7885   -3.7148   30.9470 C   0  0  0  0  0  0  0  0  0  0  0  0
    5.9534   -2.9612   30.7234 C   0  0  0  0  0  0  0  0  0  0  0  0
    7.0314   -3.0304   31.6285 C   0  0  0  0  0  0  0  0  0  0  0  0
    6.9322   -3.8543   32.7608 C   0  0  0  0  0  0  0  0  0  0  0  0
    5.7832   -4.5569   32.9397 N   0  0  0  0  0  0  0  0  0  0  0  0
  8  9  1  0  0  0
  9 13  1  0  0  0
 13 14  1  0  0  0
 14 15  2  0  0  0
 14 17  1  0  0  0
 17 18  2  0  0  0
 18 19  1  0  0  0
 19 20  2  0  0  0
 20 21  1  0  0  0
 21 22  2  0  0  0
  9 10  2  0  0  0
 10 11  1  0  0  0
 11 12  2  0  0  0
 12  1  1  0  0  0
  1  2  1  0  0  0
  2  3  1  0  0  0
  3  4  1  0  0  0
  4 23  1  0  0  0
 23 24  1  0  0  0
 24 25  2  0  0  0
 25 26  1  0  0  0
 26 27  2  0  0  0
 27 28  1  0  0  0
 28 29  2  0  0  0
 29 30  1  0  0  0
 30 31  2  0  0  0
 31 32  1  0  0  0
  4  5  1  0  0  0
  5  6  1  0  0  0
  6  7  1  0  0  0
 12  8  1  0  0  0
  7  1  1  0  0  0
 22 17  1  0  0  0
 32 24  1  0  0  0
 32 27  1  0  0  0
 13 16  1  0  0  0
M  END
> <minimizedAffinity>
-9.07847

> <CNNaffinity>
-1.0000000000

$$$$



 32 36  0  0  0  0  0  0  0  0999 V2000
   -5.8510   -8.3251   55.1510 N   0  0  0  0  0  0  0  0  0  0  0  0
   -4.3936   -8.1213   55.2688 C   0  0  0  0  0  0  0  0  0  0  0  0
   -3.9817   -6.6434   55.4065 C   0  0  0  0  0  0  0  0  0  0  0  0
   -4.4700   -5.9623   56.7163 C   0  0  0  0  0  0  0  0  0  0  0  0
   -5.8664   -6.4234   57.2075 C   0  0  0  0  0  0  0  0  0  0  0  0
   -6.9953   -6.3460   56.1623 C   0  0  0  0  0  0  0  0  0  0  0  0
   -6.7691   -7.2008   54.9010 C   0  0  0  0  0  0  0  0  0  0  0  0
   -7.4313  -10.4796   54.3791 S   0  0  0  0  0  0  0  0  0  0  0  0
   -7.4587  -11.7919   55.4432 C   0  0  0  0  0  0  0  0  0  0  0  0
   -6.6968  -11.5519   56.5329 N   0  0  0  0  0  0  0  0  0  0  0  0
   -6.1037  -10.3594   56.5142 N   0  0  0  0  0  0  0  0  0  0  0  0
   -6.3913   -9.6358   55.4083 C   0  0  0  0  0  0  0  0  0  0  0  0
   -8.1882  -13.0163   55.2711 N   0  0  0  0  0  0  0  0  0  0  0  0
   -7.7680  -14.1189   54.4452 C   0  0  0  0  0  0  0  0  0  0  0  0
   -6.5916  -14.1590   53.9897 O   0  0  0  0  0  0  0  0  0  0  0  0
   -9.0408  -13.1094   55.7545 H   0  0  0  0  0  0  0  0  0  0  0  0
   -8.7007  -15.2289   54.1290 C   0  0  0  0  0  0  0  0  0  0  0  0
   -8.2681  -16.5653   54.2401 C   0  0  0  0  0  0  0  0  0  0  0  0
   -9.1380  -17.6191   53.9439 C   0  0  0  0  0  0  0  0  0  0  0  0
  -10.4422  -17.3542   53.5202 C   0  0  0  0  0  0  0  0  0  0  0  0
  -10.8779  -16.0329   53.3881 C   0  0  0  0  0  0  0  0  0  0  0  0
  -10.0143  -14.9741   53.6880 C   0  0  0  0  0  0  0  0  0  0  0  0
   -4.4106   -4.4228   56.5944 C   0  0  0  0  0  0  0  0  0  0  0  0
   -3.9268   -3.7894   57.8696 C   0  0  0  0  0  0  0  0  0  0  0  0
   -3.6077   -4.4934   58.9810 N   0  0  0  0  0  0  0  0  0  0  0  0
   -3.2030   -3.6254   59.9037 N   0  0  0  0  0  0  0  0  0  0  0  0
   -3.2827   -2.4092   59.3341 C   0  0  0  0  0  0  0  0  0  0  0  0
   -2.9421   -1.1913   59.9183 C   0  0  0  0  0  0  0  0  0  0  0  0
   -3.0816   -0.0343   59.1329 C   0  0  0  0  0  0  0  0  0  0  0  0
   -3.5476   -0.1259   57.8057 C   0  0  0  0  0  0  0  0  0  0  0  0
   -3.8727   -1.3832   57.2707 C   0  0  0  0  0  0  0  0  0  0  0  0
   -3.7287   -2.4730   58.0717 N   0  0  0  0  0  0  0  0  0  0  0  0
  8  9  1  0  0  0
  9 13  1  0  0  0
 13 14  1  0  0  0
 14 15  2  0  0  0
 14 17  1  0  0  0
 17 18  2  0  0  0
 18 19  1  0  0  0
 19 20  2  0  0  0
 20 21  1  0  0  0
 21 22  2  0  0  0
  9 10  2  0  0  0
 10 11  1  0  0  0
 11 12  2  0  0  0
 12  1  1  0  0  0
  1  2  1  0  0  0
  2  3  1  0  0  0
  3  4  1  0  0  0
  4 23  1  0  0  0
 23 24  1  0  0  0
 24 25  2  0  0  0
 25 26  1  0  0  0
 26 27  2  0  0  0
 27 28  1  0  0  0
 28 29  2  0  0  0
 29 30  1  0  0  0
 30 31  2  0  0  0
 31 32  1  0  0  0
  4  5  1  0  0  0
  5  6  1  0  0  0
  6  7  1  0  0  0
 12  8  1  0  0  0
  7  1  1  0  0  0
 22 17  1  0  0  0
 32 24  1  0  0  0
 32 27  1  0  0  0
 13 16  1  0  0  0
M  END
> <minimizedAffinity>
-9.55219

> <CNNaffinity>
-1.0000000000

$$$$



 32 36  0  0  0  0  0  0  0  0999 V2000
   -5.2084   -7.7455   56.8670 N   0  0  0  0  0  0  0  0  0  0  0  0
   -5.4807   -6.6125   57.7733 C   0  0  0  0  0  0  0  0  0  0  0  0
   -4.4007   -5.5146   57.7378 C   0  0  0  0  0  0  0  0  0  0  0  0
   -4.2903   -4.7693   56.3776 C   0  0  0  0  0  0  0  0  0  0  0  0
   -4.5307   -5.6561   55.1289 C   0  0  0  0  0  0  0  0  0  0  0  0
   -3.6845   -6.9413   55.0559 C   0  0  0  0  0  0  0  0  0  0  0  0
   -3.8942   -7.9213   56.2257 C   0  0  0  0  0  0  0  0  0  0  0  0
   -6.1325  -10.2634   56.1313 S   0  0  0  0  0  0  0  0  0  0  0  0
   -7.8030  -10.4022   55.9190 C   0  0  0  0  0  0  0  0  0  0  0  0
   -8.4214   -9.2198   56.1318 N   0  0  0  0  0  0  0  0  0  0  0  0
   -7.5866   -8.2356   56.4616 N   0  0  0  0  0  0  0  0  0  0  0  0
   -6.2924   -8.6255   56.5114 C   0  0  0  0  0  0  0  0  0  0  0  0
   -8.5215  -11.5883   55.5473 N   0  0  0  0  0  0  0  0  0  0  0  0
   -8.2305  -12.9146   56.0275 C   0  0  0  0  0  0  0  0  0  0  0  0
   -7.4458  -13.0792   57.0023 O   0  0  0  0  0  0  0  0  0  0  0  0
   -9.2702  -11.4873   54.9161 H   0  0  0  0  0  0  0  0  0  0  0  0
   -8.8560  -14.1039   55.3980 C   0  0  0  0  0  0  0  0  0  0  0  0
   -8.0823  -14.9631   54.5929 C   0  0  0  0  0  0  0  0  0  0  0  0
   -8.6614  -16.0861   53.9942 C   0  0  0  0  0  0  0  0  0  0  0  0
  -10.0189  -16.3577   54.1782 C   0  0  0  0  0  0  0  0  0  0  0  0
  -10.8017  -15.5031   54.9594 C   0  0  0  0  0  0  0  0  0  0  0  0
  -10.2273  -14.3809   55.5656 C   0  0  0  0  0  0  0  0  0  0  0  0
   -2.9448   -4.0169   56.2671 C   0  0  0  0  0  0  0  0  0  0  0  0
   -2.6345   -3.2589   57.5282 C   0  0  0  0  0  0  0  0  0  0  0  0
   -1.6656   -3.6226   58.4010 N   0  0  0  0  0  0  0  0  0  0  0  0
   -1.6531   -2.7263   59.3834 N   0  0  0  0  0  0  0  0  0  0  0  0
   -2.6148   -1.8333   59.0877 C   0  0  0  0  0  0  0  0  0  0  0  0
   -2.9564   -0.7015   59.8246 C   0  0  0  0  0  0  0  0  0  0  0  0
   -3.9840    0.1141   59.3207 C   0  0  0  0  0  0  0  0  0  0  0  0
   -4.6292   -0.2176   58.1121 C   0  0  0  0  0  0  0  0  0  0  0  0
   -4.2387   -1.3709   57.4120 C   0  0  0  0  0  0  0  0  0  0  0  0
   -3.2450   -2.1327   57.9431 N   0  0  0  0  0  0  0  0  0  0  0  0
  8  9  1  0  0  0
  9 13  1  0  0  0
 13 14  1  0  0  0
 14 15  2  0  0  0
 14 17  1  0  0  0
 17 18  2  0  0  0
 18 19  1  0  0  0
 19 20  2  0  0  0
 20 21  1  0  0  0
 21 22  2  0  0  0
  9 10  2  0  0  0
 10 11  1  0  0  0
 11 12  2  0  0  0
 12  1  1  0  0  0
  1  2  1  0  0  0
  2  3  1  0  0  0
  3  4  1  0  0  0
  4 23  1  0  0  0
 23 24  1  0  0  0
 24 25  2  0  0  0
 25 26  1  0  0  0
 26 27  2  0  0  0
 27 28  1  0  0  0
 28 29  2  0  0  0
 29 30  1  0  0  0
 30 31  2  0  0  0
 31 32  1  0  0  0
  4  5  1  0  0  0
  5  6  1  0  0  0
  6  7  1  0  0  0
 12  8  1  0  0  0
  7  1  1  0  0  0
 22 17  1  0  0  0
 32 24  1  0  0  0
 32 27  1  0  0  0
 13 16  1  0  0  0
M  END
> <minimizedAffinity>
-9.32576

> <CNNaffinity>
-1.0000000000

$$$$



 32 36  0  0  0  0  0  0  0  0999 V2000
    6.4127   -9.3356   36.1710 N   0  0  0  0  0  0  0  0  0  0  0  0
    7.7094   -9.2445   36.8706 C   0  0  0  0  0  0  0  0  0  0  0  0
    8.4609  -10.5860   36.9641 C   0  0  0  0  0  0  0  0  0  0  0  0
    8.9181  -11.1603   35.5933 C   0  0  0  0  0  0  0  0  0  0  0  0
    7.9353  -10.9061   34.4215 C   0  0  0  0  0  0  0  0  0  0  0  0
    6.4779  -11.3364   34.6737 C   0  0  0  0  0  0  0  0  0  0  0  0
    5.7928  -10.6355   35.8621 C   0  0  0  0  0  0  0  0  0  0  0  0
    6.6130   -6.9076   34.8295 S   0  0  0  0  0  0  0  0  0  0  0  0
    5.1762   -6.0327   34.6709 C   0  0  0  0  0  0  0  0  0  0  0  0
    4.1453   -6.6770   35.2607 N   0  0  0  0  0  0  0  0  0  0  0  0
    4.4919   -7.8374   35.8154 N   0  0  0  0  0  0  0  0  0  0  0  0
    5.8056   -8.1267   35.6750 C   0  0  0  0  0  0  0  0  0  0  0  0
    5.0165   -4.7627   34.0206 N   0  0  0  0  0  0  0  0  0  0  0  0
    5.5087   -4.4403   32.7061 C   0  0  0  0  0  0  0  0  0  0  0  0
    5.9257   -5.3545   31.9421 O   0  0  0  0  0  0  0  0  0  0  0  0
    4.5337   -4.0585   34.5107 H   0  0  0  0  0  0  0  0  0  0  0  0
    5.5206   -3.0373   32.2231 C   0  0  0  0  0  0  0  0  0  0  0  0
    4.6601   -2.0851   32.8046 C   0  0  0  0  0  0  0  0  0  0  0  0
    4.6622   -0.7606   32.3569 C   0  0  0  0  0  0  0  0  0  0  0  0
    5.5096   -0.3730   31.3166 C   0  0  0  0  0  0  0  0  0  0  0  0
    6.3548   -1.3119   30.7187 C   0  0  0  0  0  0  0  0  0  0  0  0
    6.3614   -2.6375   31.1656 C   0  0  0  0  0  0  0  0  0  0  0  0
    9.2587  -12.6633   35.7094 C   0  0  0  0  0  0  0  0  0  0  0  0
   10.6312  -12.9584   35.1705 C   0  0  0  0  0  0  0  0  0  0  0  0
   11.1005  -14.2112   34.9630 N   0  0  0  0  0  0  0  0  0  0  0  0
   12.3294  -14.1025   34.4665 N   0  0  0  0  0  0  0  0  0  0  0  0
   12.5831  -12.7841   34.3804 C   0  0  0  0  0  0  0  0  0  0  0  0
   13.7462  -12.1890   33.8970 C   0  0  0  0  0  0  0  0  0  0  0  0
   13.7944  -10.7846   33.8741 C   0  0  0  0  0  0  0  0  0  0  0  0
   12.6949  -10.0265   34.3253 C   0  0  0  0  0  0  0  0  0  0  0  0
   11.5477  -10.6839   34.7993 C   0  0  0  0  0  0  0  0  0  0  0  0
   11.5512  -12.0439   34.8092 N   0  0  0  0  0  0  0  0  0  0  0  0
  8  9  1  0  0  0
  9 13  1  0  0  0
 13 14  1  0  0  0
 14 15  2  0  0  0
 14 17  1  0  0  0
 17 18  2  0  0  0
 18 19  1  0  0  0
 19 20  2  0  0  0
 20 21  1  0  0  0
 21 22  2  0  0  0
  9 10  2  0  0  0
 10 11  1  0  0  0
 11 12  2  0  0  0
 12  1  1  0  0  0
  1  2  1  0  0  0
  2  3  1  0  0  0
  3  4  1  0  0  0
  4 23  1  0  0  0
 23 24  1  0  0  0
 24 25  2  0  0  0
 25 26  1  0  0  0
 26 27  2  0  0  0
 27 28  1  0  0  0
 28 29  2  0  0  0
 29 30  1  0  0  0
 30 31  2  0  0  0
 31 32  1  0  0  0
  4  5  1  0  0  0
  5  6  1  0  0  0
  6  7  1  0  0  0
 12  8  1  0  0  0
  7  1  1  0  0  0
 22 17  1  0  0  0
 32 24  1  0  0  0
 32 27  1  0  0  0
 13 16  1  0  0  0
M  END
> <minimizedAffinity>
-9.24169

> <CNNaffinity>
-1.0000000000

$$$$



 32 36  0  0  0  0  0  0  0  0999 V2000
   -4.9900   -7.8000   55.9624 N   0  0  0  0  0  0  0  0  0  0  0  0
   -6.0486   -7.9214   54.9406 C   0  0  0  0  0  0  0  0  0  0  0  0
   -6.4397   -9.3766   54.6205 C   0  0  0  0  0  0  0  0  0  0  0  0
   -7.1004  -10.1370   55.8050 C   0  0  0  0  0  0  0  0  0  0  0  0
   -6.5349   -9.7795   57.2036 C   0  0  0  0  0  0  0  0  0  0  0  0
   -5.0045   -9.8823   57.3456 C   0  0  0  0  0  0  0  0  0  0  0  0
   -4.2041   -8.9660   56.4008 C   0  0  0  0  0  0  0  0  0  0  0  0
   -4.8513   -5.0236   55.8753 S   0  0  0  0  0  0  0  0  0  0  0  0
   -4.6012   -4.2515   57.3573 C   0  0  0  0  0  0  0  0  0  0  0  0
   -4.4885   -5.1485   58.3615 N   0  0  0  0  0  0  0  0  0  0  0  0
   -4.6059   -6.4130   57.9597 N   0  0  0  0  0  0  0  0  0  0  0  0
   -4.8104   -6.5350   56.6283 C   0  0  0  0  0  0  0  0  0  0  0  0
   -4.4983   -2.8365   57.5768 N   0  0  0  0  0  0  0  0  0  0  0  0
   -3.2644   -2.0947   57.6180 C   0  0  0  0  0  0  0  0  0  0  0  0
   -2.1887   -2.6293   57.2302 O   0  0  0  0  0  0  0  0  0  0  0  0
   -5.3350   -2.3348   57.7092 H   0  0  0  0  0  0  0  0  0  0  0  0
   -3.2380   -0.6917   58.1004 C   0  0  0  0  0  0  0  0  0  0  0  0
   -3.2370   -0.4226   59.4835 C   0  0  0  0  0  0  0  0  0  0  0  0
   -3.2131    0.8954   59.9494 C   0  0  0  0  0  0  0  0  0  0  0  0
   -3.2048    1.9593   59.0445 C   0  0  0  0  0  0  0  0  0  0  0  0
   -3.2243    1.7063   57.6702 C   0  0  0  0  0  0  0  0  0  0  0  0
   -3.2428    0.3899   57.1975 C   0  0  0  0  0  0  0  0  0  0  0  0
   -7.0639  -11.6642   55.5708 C   0  0  0  0  0  0  0  0  0  0  0  0
   -8.3963  -12.2966   55.8642 C   0  0  0  0  0  0  0  0  0  0  0  0
   -9.3943  -11.6664   56.5273 N   0  0  0  0  0  0  0  0  0  0  0  0
  -10.4252  -12.5040   56.5914 N   0  0  0  0  0  0  0  0  0  0  0  0
  -10.0340  -13.6280   55.9641 C   0  0  0  0  0  0  0  0  0  0  0  0
  -10.7928  -14.7794   55.7665 C   0  0  0  0  0  0  0  0  0  0  0  0
  -10.1940  -15.8370   55.0608 C   0  0  0  0  0  0  0  0  0  0  0  0
   -8.8753  -15.7149   54.5778 C   0  0  0  0  0  0  0  0  0  0  0  0
   -8.1609  -14.5273   54.8061 C   0  0  0  0  0  0  0  0  0  0  0  0
   -8.7798  -13.5350   55.5004 N   0  0  0  0  0  0  0  0  0  0  0  0
  8  9  1  0  0  0
  9 13  1  0  0  0
 13 14  1  0  0  0
 14 15  2  0  0  0
 14 17  1  0  0  0
 17 18  2  0  0  0
 18 19  1  0  0  0
 19 20  2  0  0  0
 20 21  1  0  0  0
 21 22  2  0  0  0
  9 10  2  0  0  0
 10 11  1  0  0  0
 11 12  2  0  0  0
 12  1  1  0  0  0
  1  2  1  0  0  0
  2  3  1  0  0  0
  3  4  1  0  0  0
  4 23  1  0  0  0
 23 24  1  0  0  0
 24 25  2  0  0  0
 25 26  1  0  0  0
 26 27  2  0  0  0
 27 28  1  0  0  0
 28 29  2  0  0  0
 29 30  1  0  0  0
 30 31  2  0  0  0
 31 32  1  0  0  0
  4  5  1  0  0  0
  5  6  1  0  0  0
  6  7  1  0  0  0
 12  8  1  0  0  0
  7  1  1  0  0  0
 22 17  1  0  0  0
 32 24  1  0  0  0
 32 27  1  0  0  0
 13 16  1  0  0  0
M  END
> <minimizedAffinity>
-9.15561

> <CNNaffinity>
-1.0000000000

$$$$



 32 36  0  0  0  0  0  0  0  0999 V2000
    6.5917   -9.4016   36.0796 N   0  0  0  0  0  0  0  0  0  0  0  0
    7.8305   -9.4590   36.8804 C   0  0  0  0  0  0  0  0  0  0  0  0
    8.4580  -10.8639   36.9549 C   0  0  0  0  0  0  0  0  0  0  0  0
    8.9756  -11.4066   35.5927 C   0  0  0  0  0  0  0  0  0  0  0  0
    8.1156  -11.0093   34.3654 C   0  0  0  0  0  0  0  0  0  0  0  0
    6.6118  -11.3230   34.4805 C   0  0  0  0  0  0  0  0  0  0  0  0
    5.8932  -10.6254   35.6509 C   0  0  0  0  0  0  0  0  0  0  0  0
    7.1095   -6.9150   34.9465 S   0  0  0  0  0  0  0  0  0  0  0  0
    5.7632   -5.9256   34.6940 C   0  0  0  0  0  0  0  0  0  0  0  0
    4.6300   -6.5265   35.1188 N   0  0  0  0  0  0  0  0  0  0  0  0
    4.8308   -7.7427   35.6234 N   0  0  0  0  0  0  0  0  0  0  0  0
    6.1293   -8.1211   35.6080 C   0  0  0  0  0  0  0  0  0  0  0  0
    5.7660   -4.6083   34.1232 N   0  0  0  0  0  0  0  0  0  0  0  0
    4.9412   -4.1839   33.0214 C   0  0  0  0  0  0  0  0  0  0  0  0
    3.9822   -4.9058   32.6310 O   0  0  0  0  0  0  0  0  0  0  0  0
    6.3786   -3.9444   34.5147 H   0  0  0  0  0  0  0  0  0  0  0  0
    5.1931   -2.8906   32.3388 C   0  0  0  0  0  0  0  0  0  0  0  0
    6.2427   -2.7800   31.4054 C   0  0  0  0  0  0  0  0  0  0  0  0
    6.4897   -1.5661   30.7569 C   0  0  0  0  0  0  0  0  0  0  0  0
    5.7047   -0.4465   31.0410 C   0  0  0  0  0  0  0  0  0  0  0  0
    4.6723   -0.5381   31.9785 C   0  0  0  0  0  0  0  0  0  0  0  0
    4.4164   -1.7509   32.6268 C   0  0  0  0  0  0  0  0  0  0  0  0
    9.1798  -12.9374   35.6490 C   0  0  0  0  0  0  0  0  0  0  0  0
   10.5718  -13.3215   35.2292 C   0  0  0  0  0  0  0  0  0  0  0  0
   11.1648  -12.8685   34.0997 N   0  0  0  0  0  0  0  0  0  0  0  0
   12.3879  -13.3885   34.0520 N   0  0  0  0  0  0  0  0  0  0  0  0
   12.5153  -14.1473   35.1556 C   0  0  0  0  0  0  0  0  0  0  0  0
   13.6387  -14.8750   35.5417 C   0  0  0  0  0  0  0  0  0  0  0  0
   13.5659  -15.5863   36.7515 C   0  0  0  0  0  0  0  0  0  0  0  0
   12.3917  -15.5487   37.5306 C   0  0  0  0  0  0  0  0  0  0  0  0
   11.2917  -14.7945   37.0902 C   0  0  0  0  0  0  0  0  0  0  0  0
   11.4070  -14.1294   35.9094 N   0  0  0  0  0  0  0  0  0  0  0  0
  8  9  1  0  0  0
  9 13  1  0  0  0
 13 14  1  0  0  0
 14 15  2  0  0  0
 14 17  1  0  0  0
 17 18  2  0  0  0
 18 19  1  0  0  0
 19 20  2  0  0  0
 20 21  1  0  0  0
 21 22  2  0  0  0
  9 10  2  0  0  0
 10 11  1  0  0  0
 11 12  2  0  0  0
 12  1  1  0  0  0
  1  2  1  0  0  0
  2  3  1  0  0  0
  3  4  1  0  0  0
  4 23  1  0  0  0
 23 24  1  0  0  0
 24 25  2  0  0  0
 25 26  1  0  0  0
 26 27  2  0  0  0
 27 28  1  0  0  0
 28 29  2  0  0  0
 29 30  1  0  0  0
 30 31  2  0  0  0
 31 32  1  0  0  0
  4  5  1  0  0  0
  5  6  1  0  0  0
  6  7  1  0  0  0
 12  8  1  0  0  0
  7  1  1  0  0  0
 22 17  1  0  0  0
 32 24  1  0  0  0
 32 27  1  0  0  0
 13 16  1  0  0  0
M  END
> <minimizedAffinity>
-9.09453

> <CNNaffinity>
-1.0000000000

$$$$



 32 36  0  0  0  0  0  0  0  0999 V2000
   -6.5359   -8.4678   56.0475 N   0  0  0  0  0  0  0  0  0  0  0  0
   -5.6506   -8.3932   57.2265 C   0  0  0  0  0  0  0  0  0  0  0  0
   -4.6976   -7.1830   57.2128 C   0  0  0  0  0  0  0  0  0  0  0  0
   -5.4118   -5.8050   57.3070 C   0  0  0  0  0  0  0  0  0  0  0  0
   -6.7714   -5.7253   56.5662 C   0  0  0  0  0  0  0  0  0  0  0  0
   -6.7492   -6.1681   55.0909 C   0  0  0  0  0  0  0  0  0  0  0  0
   -6.3106   -7.6266   54.8597 C   0  0  0  0  0  0  0  0  0  0  0  0
   -9.1355   -9.0385   55.2404 S   0  0  0  0  0  0  0  0  0  0  0  0
   -9.8297  -10.4228   55.9163 C   0  0  0  0  0  0  0  0  0  0  0  0
   -8.9794  -11.0241   56.7772 N   0  0  0  0  0  0  0  0  0  0  0  0
   -7.8069  -10.4017   56.8873 N   0  0  0  0  0  0  0  0  0  0  0  0
   -7.7138   -9.2947   56.1157 C   0  0  0  0  0  0  0  0  0  0  0  0
  -11.1477  -10.9305   55.6587 N   0  0  0  0  0  0  0  0  0  0  0  0
  -12.2556  -10.8548   56.5758 C   0  0  0  0  0  0  0  0  0  0  0  0
  -12.1848  -10.1178   57.5981 O   0  0  0  0  0  0  0  0  0  0  0  0
  -11.3063  -11.3633   54.7888 H   0  0  0  0  0  0  0  0  0  0  0  0
  -13.4991  -11.6260   56.3291 C   0  0  0  0  0  0  0  0  0  0  0  0
  -13.4374  -12.8690   55.6684 C   0  0  0  0  0  0  0  0  0  0  0  0
  -14.6027  -13.6038   55.4299 C   0  0  0  0  0  0  0  0  0  0  0  0
  -15.8427  -13.1032   55.8330 C   0  0  0  0  0  0  0  0  0  0  0  0
  -15.9197  -11.8631   56.4728 C   0  0  0  0  0  0  0  0  0  0  0  0
  -14.7570  -11.1253   56.7193 C   0  0  0  0  0  0  0  0  0  0  0  0
   -4.4724   -4.6634   56.8567 C   0  0  0  0  0  0  0  0  0  0  0  0
   -3.9525   -3.8840   58.0330 C   0  0  0  0  0  0  0  0  0  0  0  0
   -3.5639   -4.4557   59.1970 N   0  0  0  0  0  0  0  0  0  0  0  0
   -3.1455   -3.4833   60.0019 N   0  0  0  0  0  0  0  0  0  0  0  0
   -3.2867   -2.3381   59.3102 C   0  0  0  0  0  0  0  0  0  0  0  0
   -2.9576   -1.0561   59.7446 C   0  0  0  0  0  0  0  0  0  0  0  0
   -3.1662    0.0056   58.8477 C   0  0  0  0  0  0  0  0  0  0  0  0
   -3.6870   -0.2404   57.5611 C   0  0  0  0  0  0  0  0  0  0  0  0
   -3.9972   -1.5559   57.1791 C   0  0  0  0  0  0  0  0  0  0  0  0
   -3.7854   -2.5489   58.0840 N   0  0  0  0  0  0  0  0  0  0  0  0
  8  9  1  0  0  0
  9 13  1  0  0  0
 13 14  1  0  0  0
 14 15  2  0  0  0
 14 17  1  0  0  0
 17 18  2  0  0  0
 18 19  1  0  0  0
 19 20  2  0  0  0
 20 21  1  0  0  0
 21 22  2  0  0  0
  9 10  2  0  0  0
 10 11  1  0  0  0
 11 12  2  0  0  0
 12  1  1  0  0  0
  1  2  1  0  0  0
  2  3  1  0  0  0
  3  4  1  0  0  0
  4 23  1  0  0  0
 23 24  1  0  0  0
 24 25  2  0  0  0
 25 26  1  0  0  0
 26 27  2  0  0  0
 27 28  1  0  0  0
 28 29  2  0  0  0
 29 30  1  0  0  0
 30 31  2  0  0  0
 31 32  1  0  0  0
  4  5  1  0  0  0
  5  6  1  0  0  0
  6  7  1  0  0  0
 12  8  1  0  0  0
  7  1  1  0  0  0
 22 17  1  0  0  0
 32 24  1  0  0  0
 32 27  1  0  0  0
 13 16  1  0  0  0
M  END
> <minimizedAffinity>
-9.07591

> <CNNaffinity>
-1.0000000000

$$$$



 32 36  0  0  0  0  0  0  0  0999 V2000
   -4.4298   -6.2838   55.4531 N   0  0  0  0  0  0  0  0  0  0  0  0
   -5.6990   -6.1846   54.7058 C   0  0  0  0  0  0  0  0  0  0  0  0
   -6.4365   -7.5283   54.5521 C   0  0  0  0  0  0  0  0  0  0  0  0
   -6.9423   -8.1374   55.8903 C   0  0  0  0  0  0  0  0  0  0  0  0
   -6.0077   -7.9044   57.1051 C   0  0  0  0  0  0  0  0  0  0  0  0
   -4.5384   -8.3194   56.9000 C   0  0  0  0  0  0  0  0  0  0  0  0
   -3.8129   -7.5865   55.7557 C   0  0  0  0  0  0  0  0  0  0  0  0
   -4.5816   -4.0880   57.1533 S   0  0  0  0  0  0  0  0  0  0  0  0
   -3.2313   -3.0725   57.1677 C   0  0  0  0  0  0  0  0  0  0  0  0
   -2.2853   -3.5069   56.3062 N   0  0  0  0  0  0  0  0  0  0  0  0
   -2.6264   -4.6208   55.6605 N   0  0  0  0  0  0  0  0  0  0  0  0
   -3.8513   -5.0830   56.0002 C   0  0  0  0  0  0  0  0  0  0  0  0
   -3.0633   -1.8854   57.9575 N   0  0  0  0  0  0  0  0  0  0  0  0
   -3.8166   -0.6692   57.7909 C   0  0  0  0  0  0  0  0  0  0  0  0
   -4.8496   -0.6562   57.0657 O   0  0  0  0  0  0  0  0  0  0  0  0
   -2.3812   -1.9042   58.6672 H   0  0  0  0  0  0  0  0  0  0  0  0
   -3.4027    0.5799   58.4768 C   0  0  0  0  0  0  0  0  0  0  0  0
   -2.9235    1.6706   57.7245 C   0  0  0  0  0  0  0  0  0  0  0  0
   -2.5300    2.8521   58.3602 C   0  0  0  0  0  0  0  0  0  0  0  0
   -2.5953    2.9554   59.7515 C   0  0  0  0  0  0  0  0  0  0  0  0
   -3.0513    1.8743   60.5107 C   0  0  0  0  0  0  0  0  0  0  0  0
   -3.4516    0.6913   59.8805 C   0  0  0  0  0  0  0  0  0  0  0  0
   -7.2672   -9.6394   55.7264 C   0  0  0  0  0  0  0  0  0  0  0  0
   -8.6123   -9.9769   56.3079 C   0  0  0  0  0  0  0  0  0  0  0  0
   -9.4493   -9.0564   56.8417 N   0  0  0  0  0  0  0  0  0  0  0  0
  -10.5467   -9.6940   57.2387 N   0  0  0  0  0  0  0  0  0  0  0  0
  -10.3559  -10.9911   56.9368 C   0  0  0  0  0  0  0  0  0  0  0  0
  -11.2500  -12.0373   57.1528 C   0  0  0  0  0  0  0  0  0  0  0  0
  -10.8570  -13.3215   56.7387 C   0  0  0  0  0  0  0  0  0  0  0  0
   -9.6024  -13.5203   56.1275 C   0  0  0  0  0  0  0  0  0  0  0  0
   -8.7446  -12.4251   55.9340 C   0  0  0  0  0  0  0  0  0  0  0  0
   -9.1656  -11.2034   56.3582 N   0  0  0  0  0  0  0  0  0  0  0  0
  8  9  1  0  0  0
  9 13  1  0  0  0
 13 14  1  0  0  0
 14 15  2  0  0  0
 14 17  1  0  0  0
 17 18  2  0  0  0
 18 19  1  0  0  0
 19 20  2  0  0  0
 20 21  1  0  0  0
 21 22  2  0  0  0
  9 10  2  0  0  0
 10 11  1  0  0  0
 11 12  2  0  0  0
 12  1  1  0  0  0
  1  2  1  0  0  0
  2  3  1  0  0  0
  3  4  1  0  0  0
  4 23  1  0  0  0
 23 24  1  0  0  0
 24 25  2  0  0  0
 25 26  1  0  0  0
 26 27  2  0  0  0
 27 28  1  0  0  0
 28 29  2  0  0  0
 29 30  1  0  0  0
 30 31  2  0  0  0
 31 32  1  0  0  0
  4  5  1  0  0  0
  5  6  1  0  0  0
  6  7  1  0  0  0
 12  8  1  0  0  0
  7  1  1  0  0  0
 22 17  1  0  0  0
 32 24  1  0  0  0
 32 27  1  0  0  0
 13 16  1  0  0  0
M  END
> <minimizedAffinity>
-9.04371

> <CNNaffinity>
-1.0000000000

$$$$



 32 36  0  0  0  0  0  0  0  0999 V2000
   -8.3340   -8.7405   55.2455 N   0  0  0  0  0  0  0  0  0  0  0  0
   -7.5358   -9.1379   56.4221 C   0  0  0  0  0  0  0  0  0  0  0  0
   -6.2062   -8.3720   56.5588 C   0  0  0  0  0  0  0  0  0  0  0  0
   -6.3696   -6.8494   56.8282 C   0  0  0  0  0  0  0  0  0  0  0  0
   -7.5714   -6.1867   56.1071 C   0  0  0  0  0  0  0  0  0  0  0  0
   -7.6479   -6.4284   54.5877 C   0  0  0  0  0  0  0  0  0  0  0  0
   -7.7642   -7.9074   54.1729 C   0  0  0  0  0  0  0  0  0  0  0  0
  -10.8806   -8.5894   56.3532 S   0  0  0  0  0  0  0  0  0  0  0  0
  -12.1048   -9.3781   55.4963 C   0  0  0  0  0  0  0  0  0  0  0  0
  -11.6148   -9.9837   54.3923 N   0  0  0  0  0  0  0  0  0  0  0  0
  -10.3032   -9.8160   54.2325 N   0  0  0  0  0  0  0  0  0  0  0  0
   -9.7347   -9.0764   55.2119 C   0  0  0  0  0  0  0  0  0  0  0  0
  -13.4936   -9.4424   55.8547 N   0  0  0  0  0  0  0  0  0  0  0  0
  -14.1765  -10.6281   56.3042 C   0  0  0  0  0  0  0  0  0  0  0  0
  -13.5187  -11.6550   56.6299 O   0  0  0  0  0  0  0  0  0  0  0  0
  -14.0192   -8.6126   55.7881 H   0  0  0  0  0  0  0  0  0  0  0  0
  -15.6565  -10.6588   56.4064 C   0  0  0  0  0  0  0  0  0  0  0  0
  -16.3394  -11.8907   56.3685 C   0  0  0  0  0  0  0  0  0  0  0  0
  -17.7338  -11.9315   56.4630 C   0  0  0  0  0  0  0  0  0  0  0  0
  -18.4640  -10.7469   56.5814 C   0  0  0  0  0  0  0  0  0  0  0  0
  -17.8000   -9.5172   56.6016 C   0  0  0  0  0  0  0  0  0  0  0  0
  -16.4048   -9.4697   56.5129 C   0  0  0  0  0  0  0  0  0  0  0  0
   -5.0585   -6.0901   56.5232 C   0  0  0  0  0  0  0  0  0  0  0  0
   -4.4845   -5.4651   57.7646 C   0  0  0  0  0  0  0  0  0  0  0  0
   -4.5641   -6.0297   58.9925 N   0  0  0  0  0  0  0  0  0  0  0  0
   -3.9402   -5.2235   59.8465 N   0  0  0  0  0  0  0  0  0  0  0  0
   -3.4916   -4.1838   59.1200 C   0  0  0  0  0  0  0  0  0  0  0  0
   -2.7607   -3.0940   59.5876 C   0  0  0  0  0  0  0  0  0  0  0  0
   -2.3704   -2.1243   58.6483 C   0  0  0  0  0  0  0  0  0  0  0  0
   -2.7138   -2.2702   57.2889 C   0  0  0  0  0  0  0  0  0  0  0  0
   -3.4503   -3.3930   56.8770 C   0  0  0  0  0  0  0  0  0  0  0  0
   -3.8117   -4.3002   57.8236 N   0  0  0  0  0  0  0  0  0  0  0  0
  8  9  1  0  0  0
  9 13  1  0  0  0
 13 14  1  0  0  0
 14 15  2  0  0  0
 14 17  1  0  0  0
 17 18  2  0  0  0
 18 19  1  0  0  0
 19 20  2  0  0  0
 20 21  1  0  0  0
 21 22  2  0  0  0
  9 10  2  0  0  0
 10 11  1  0  0  0
 11 12  2  0  0  0
 12  1  1  0  0  0
  1  2  1  0  0  0
  2  3  1  0  0  0
  3  4  1  0  0  0
  4 23  1  0  0  0
 23 24  1  0  0  0
 24 25  2  0  0  0
 25 26  1  0  0  0
 26 27  2  0  0  0
 27 28  1  0  0  0
 28 29  2  0  0  0
 29 30  1  0  0  0
 30 31  2  0  0  0
 31 32  1  0  0  0
  4  5  1  0  0  0
  5  6  1  0  0  0
  6  7  1  0  0  0
 12  8  1  0  0  0
  7  1  1  0  0  0
 22 17  1  0  0  0
 32 24  1  0  0  0
 32 27  1  0  0  0
 13 16  1  0  0  0
M  END
> <minimizedAffinity>
-8.91320

> <CNNaffinity>
-1.0000000000

$$$$



 32 36  0  0  0  0  0  0  0  0999 V2000
   -9.2120   -9.7196   55.8790 N   0  0  0  0  0  0  0  0  0  0  0  0
  -10.1385   -9.1599   54.8751 C   0  0  0  0  0  0  0  0  0  0  0  0
  -11.5542   -9.7646   54.9305 C   0  0  0  0  0  0  0  0  0  0  0  0
  -12.3327   -9.4524   56.2398 C   0  0  0  0  0  0  0  0  0  0  0  0
  -11.4603   -9.4112   57.5208 C   0  0  0  0  0  0  0  0  0  0  0  0
  -10.5735  -10.6480   57.7587 C   0  0  0  0  0  0  0  0  0  0  0  0
   -9.5466  -10.9315   56.6460 C   0  0  0  0  0  0  0  0  0  0  0  0
   -7.8166   -7.3195   56.0453 S   0  0  0  0  0  0  0  0  0  0  0  0
   -6.2385   -7.4244   56.6398 C   0  0  0  0  0  0  0  0  0  0  0  0
   -5.9084   -8.7035   56.9236 N   0  0  0  0  0  0  0  0  0  0  0  0
   -6.8890   -9.5715   56.6805 N   0  0  0  0  0  0  0  0  0  0  0  0
   -8.0105   -8.9906   56.1966 C   0  0  0  0  0  0  0  0  0  0  0  0
   -5.3210   -6.3357   56.8248 N   0  0  0  0  0  0  0  0  0  0  0  0
   -4.7886   -5.9110   58.0939 C   0  0  0  0  0  0  0  0  0  0  0  0
   -4.9313   -6.6360   59.1172 O   0  0  0  0  0  0  0  0  0  0  0  0
   -5.0339   -5.8418   56.0231 H   0  0  0  0  0  0  0  0  0  0  0  0
   -4.0541   -4.6276   58.2176 C   0  0  0  0  0  0  0  0  0  0  0  0
   -3.5067   -4.2465   59.4587 C   0  0  0  0  0  0  0  0  0  0  0  0
   -2.8133   -3.0391   59.5870 C   0  0  0  0  0  0  0  0  0  0  0  0
   -2.6701   -2.1919   58.4859 C   0  0  0  0  0  0  0  0  0  0  0  0
   -3.2243   -2.5496   57.2538 C   0  0  0  0  0  0  0  0  0  0  0  0
   -3.9144   -3.7586   57.1173 C   0  0  0  0  0  0  0  0  0  0  0  0
  -13.5256  -10.4187   56.4176 C   0  0  0  0  0  0  0  0  0  0  0  0
  -14.8362   -9.7245   56.1696 C   0  0  0  0  0  0  0  0  0  0  0  0
  -14.9369   -8.4297   55.7871 N   0  0  0  0  0  0  0  0  0  0  0  0
  -16.2295   -8.1534   55.6411 N   0  0  0  0  0  0  0  0  0  0  0  0
  -16.8903   -9.2874   55.9368 C   0  0  0  0  0  0  0  0  0  0  0  0
  -18.2695   -9.4811   55.9038 C   0  0  0  0  0  0  0  0  0  0  0  0
  -18.7523  -10.7600   56.2300 C   0  0  0  0  0  0  0  0  0  0  0  0
  -17.8570  -11.7937   56.5721 C   0  0  0  0  0  0  0  0  0  0  0  0
  -16.4759  -11.5382   56.5850 C   0  0  0  0  0  0  0  0  0  0  0  0
  -16.0572  -10.2833   56.2696 N   0  0  0  0  0  0  0  0  0  0  0  0
  8  9  1  0  0  0
  9 13  1  0  0  0
 13 14  1  0  0  0
 14 15  2  0  0  0
 14 17  1  0  0  0
 17 18  2  0  0  0
 18 19  1  0  0  0
 19 20  2  0  0  0
 20 21  1  0  0  0
 21 22  2  0  0  0
  9 10  2  0  0  0
 10 11  1  0  0  0
 11 12  2  0  0  0
 12  1  1  0  0  0
  1  2  1  0  0  0
  2  3  1  0  0  0
  3  4  1  0  0  0
  4 23  1  0  0  0
 23 24  1  0  0  0
 24 25  2  0  0  0
 25 26  1  0  0  0
 26 27  2  0  0  0
 27 28  1  0  0  0
 28 29  2  0  0  0
 29 30  1  0  0  0
 30 31  2  0  0  0
 31 32  1  0  0  0
  4  5  1  0  0  0
  5  6  1  0  0  0
  6  7  1  0  0  0
 12  8  1  0  0  0
  7  1  1  0  0  0
 22 17  1  0  0  0
 32 24  1  0  0  0
 32 27  1  0  0  0
 13 16  1  0  0  0
M  END
> <minimizedAffinity>
-8.88001

> <CNNaffinity>
-1.0000000000

$$$$



 32 36  0  0  0  0  0  0  0  0999 V2000
   -7.1186   -9.8633   56.2482 N   0  0  0  0  0  0  0  0  0  0  0  0
   -7.6309   -8.5748   55.7365 C   0  0  0  0  0  0  0  0  0  0  0  0
   -7.1090   -7.3441   56.4998 C   0  0  0  0  0  0  0  0  0  0  0  0
   -5.5864   -7.0760   56.3474 C   0  0  0  0  0  0  0  0  0  0  0  0
   -4.7237   -8.3370   56.0660 C   0  0  0  0  0  0  0  0  0  0  0  0
   -4.8159   -9.4613   57.1132 C   0  0  0  0  0  0  0  0  0  0  0  0
   -6.2420   -9.9322   57.4308 C   0  0  0  0  0  0  0  0  0  0  0  0
   -8.9058  -11.3736   54.7387 S   0  0  0  0  0  0  0  0  0  0  0  0
   -8.3669  -12.9005   54.2610 C   0  0  0  0  0  0  0  0  0  0  0  0
   -7.1103  -13.1310   54.7000 N   0  0  0  0  0  0  0  0  0  0  0  0
   -6.5986  -12.1191   55.3990 N   0  0  0  0  0  0  0  0  0  0  0  0
   -7.4428  -11.0710   55.5268 C   0  0  0  0  0  0  0  0  0  0  0  0
   -9.1015  -13.8649   53.4897 N   0  0  0  0  0  0  0  0  0  0  0  0
   -9.5371  -15.1500   53.9746 C   0  0  0  0  0  0  0  0  0  0  0  0
   -9.1602  -15.5618   55.1035 O   0  0  0  0  0  0  0  0  0  0  0  0
   -9.3241  -13.6299   52.5599 H   0  0  0  0  0  0  0  0  0  0  0  0
  -10.4146  -16.0207   53.1532 C   0  0  0  0  0  0  0  0  0  0  0  0
  -10.1435  -17.3952   52.9914 C   0  0  0  0  0  0  0  0  0  0  0  0
  -10.9794  -18.1960   52.2048 C   0  0  0  0  0  0  0  0  0  0  0  0
  -12.0844  -17.6350   51.5609 C   0  0  0  0  0  0  0  0  0  0  0  0
  -12.3560  -16.2726   51.7015 C   0  0  0  0  0  0  0  0  0  0  0  0
  -11.5260  -15.4672   52.4900 C   0  0  0  0  0  0  0  0  0  0  0  0
   -5.0703   -6.2698   57.5611 C   0  0  0  0  0  0  0  0  0  0  0  0
   -4.1018   -5.1933   57.1625 C   0  0  0  0  0  0  0  0  0  0  0  0
   -3.6232   -5.0337   55.9069 N   0  0  0  0  0  0  0  0  0  0  0  0
   -2.7797   -4.0046   55.9273 N   0  0  0  0  0  0  0  0  0  0  0  0
   -2.7600   -3.5618   57.1977 C   0  0  0  0  0  0  0  0  0  0  0  0
   -2.0028   -2.5074   57.7027 C   0  0  0  0  0  0  0  0  0  0  0  0
   -2.1156   -2.2320   59.0770 C   0  0  0  0  0  0  0  0  0  0  0  0
   -2.9656   -3.0079   59.8937 C   0  0  0  0  0  0  0  0  0  0  0  0
   -3.7020   -4.0591   59.3246 C   0  0  0  0  0  0  0  0  0  0  0  0
   -3.5672   -4.2791   57.9906 N   0  0  0  0  0  0  0  0  0  0  0  0
  8  9  1  0  0  0
  9 13  1  0  0  0
 13 14  1  0  0  0
 14 15  2  0  0  0
 14 17  1  0  0  0
 17 18  2  0  0  0
 18 19  1  0  0  0
 19 20  2  0  0  0
 20 21  1  0  0  0
 21 22  2  0  0  0
  9 10  2  0  0  0
 10 11  1  0  0  0
 11 12  2  0  0  0
 12  1  1  0  0  0
  1  2  1  0  0  0
  2  3  1  0  0  0
  3  4  1  0  0  0
  4 23  1  0  0  0
 23 24  1  0  0  0
 24 25  2  0  0  0
 25 26  1  0  0  0
 26 27  2  0  0  0
 27 28  1  0  0  0
 28 29  2  0  0  0
 29 30  1  0  0  0
 30 31  2  0  0  0
 31 32  1  0  0  0
  4  5  1  0  0  0
  5  6  1  0  0  0
  6  7  1  0  0  0
 12  8  1  0  0  0
  7  1  1  0  0  0
 22 17  1  0  0  0
 32 24  1  0  0  0
 32 27  1  0  0  0
 13 16  1  0  0  0
M  END
> <minimizedAffinity>
-9.83981

> <CNNaffinity>
-1.0000000000

$$$$



 32 36  0  0  0  0  0  0  0  0999 V2000
   -5.1979   -7.6564   56.8635 N   0  0  0  0  0  0  0  0  0  0  0  0
   -5.5474   -6.5104   57.7291 C   0  0  0  0  0  0  0  0  0  0  0  0
   -4.4577   -5.4259   57.8052 C   0  0  0  0  0  0  0  0  0  0  0  0
   -4.2042   -4.6579   56.4787 C   0  0  0  0  0  0  0  0  0  0  0  0
   -4.5259   -5.4578   55.1863 C   0  0  0  0  0  0  0  0  0  0  0  0
   -3.7706   -6.7879   55.0141 C   0  0  0  0  0  0  0  0  0  0  0  0
   -3.8847   -7.7535   56.2018 C   0  0  0  0  0  0  0  0  0  0  0  0
   -5.9141  -10.3331   56.5875 S   0  0  0  0  0  0  0  0  0  0  0  0
   -7.5400  -10.6340   56.2467 C   0  0  0  0  0  0  0  0  0  0  0  0
   -8.2422   -9.4822   56.1750 N   0  0  0  0  0  0  0  0  0  0  0  0
   -7.5007   -8.3951   56.3825 N   0  0  0  0  0  0  0  0  0  0  0  0
   -6.1982   -8.6683   56.6199 C   0  0  0  0  0  0  0  0  0  0  0  0
   -8.1497  -11.9204   56.0515 N   0  0  0  0  0  0  0  0  0  0  0  0
   -7.9984  -12.7346   54.8723 C   0  0  0  0  0  0  0  0  0  0  0  0
   -7.4088  -12.2768   53.8580 O   0  0  0  0  0  0  0  0  0  0  0  0
   -8.7133  -12.2719   56.7782 H   0  0  0  0  0  0  0  0  0  0  0  0
   -8.5481  -14.1122   54.8178 C   0  0  0  0  0  0  0  0  0  0  0  0
   -9.8376  -14.4094   55.3054 C   0  0  0  0  0  0  0  0  0  0  0  0
  -10.3328  -15.7174   55.2524 C   0  0  0  0  0  0  0  0  0  0  0  0
   -9.5454  -16.7441   54.7269 C   0  0  0  0  0  0  0  0  0  0  0  0
   -8.2615  -16.4658   54.2537 C   0  0  0  0  0  0  0  0  0  0  0  0
   -7.7621  -15.1590   54.3003 C   0  0  0  0  0  0  0  0  0  0  0  0
   -2.7703   -4.0808   56.4709 C   0  0  0  0  0  0  0  0  0  0  0  0
   -2.4807   -3.2519   57.6893 C   0  0  0  0  0  0  0  0  0  0  0  0
   -1.5578   -3.5776   58.6238 N   0  0  0  0  0  0  0  0  0  0  0  0
   -1.5888   -2.6355   59.5631 N   0  0  0  0  0  0  0  0  0  0  0  0
   -2.5340   -1.7572   59.1816 C   0  0  0  0  0  0  0  0  0  0  0  0
   -2.9334   -0.6111   59.8649 C   0  0  0  0  0  0  0  0  0  0  0  0
   -3.9667    0.1532   59.2946 C   0  0  0  0  0  0  0  0  0  0  0  0
   -4.5632   -0.2455   58.0795 C   0  0  0  0  0  0  0  0  0  0  0  0
   -4.1169   -1.4129   57.4397 C   0  0  0  0  0  0  0  0  0  0  0  0
   -3.1088   -2.1115   58.0245 N   0  0  0  0  0  0  0  0  0  0  0  0
  8  9  1  0  0  0
  9 13  1  0  0  0
 13 14  1  0  0  0
 14 15  2  0  0  0
 14 17  1  0  0  0
 17 18  2  0  0  0
 18 19  1  0  0  0
 19 20  2  0  0  0
 20 21  1  0  0  0
 21 22  2  0  0  0
  9 10  2  0  0  0
 10 11  1  0  0  0
 11 12  2  0  0  0
 12  1  1  0  0  0
  1  2  1  0  0  0
  2  3  1  0  0  0
  3  4  1  0  0  0
  4 23  1  0  0  0
 23 24  1  0  0  0
 24 25  2  0  0  0
 25 26  1  0  0  0
 26 27  2  0  0  0
 27 28  1  0  0  0
 28 29  2  0  0  0
 29 30  1  0  0  0
 30 31  2  0  0  0
 31 32  1  0  0  0
  4  5  1  0  0  0
  5  6  1  0  0  0
  6  7  1  0  0  0
 12  8  1  0  0  0
  7  1  1  0  0  0
 22 17  1  0  0  0
 32 24  1  0  0  0
 32 27  1  0  0  0
 13 16  1  0  0  0
M  END
> <minimizedAffinity>
-9.62938

> <CNNaffinity>
-1.0000000000

$$$$



 32 36  0  0  0  0  0  0  0  0999 V2000
   -4.8353   -5.5367   57.6448 N   0  0  0  0  0  0  0  0  0  0  0  0
   -4.6236   -6.8685   58.2500 C   0  0  0  0  0  0  0  0  0  0  0  0
   -5.1708   -8.0349   57.4077 C   0  0  0  0  0  0  0  0  0  0  0  0
   -4.4409   -8.2655   56.0558 C   0  0  0  0  0  0  0  0  0  0  0  0
   -3.7876   -6.9981   55.4390 C   0  0  0  0  0  0  0  0  0  0  0  0
   -4.7367   -5.8164   55.1701 C   0  0  0  0  0  0  0  0  0  0  0  0
   -5.5713   -5.3707   56.3788 C   0  0  0  0  0  0  0  0  0  0  0  0
   -3.9720   -2.8911   57.5495 S   0  0  0  0  0  0  0  0  0  0  0  0
   -3.3111   -2.2753   58.9757 C   0  0  0  0  0  0  0  0  0  0  0  0
   -3.3257   -3.2029   59.9576 N   0  0  0  0  0  0  0  0  0  0  0  0
   -3.8456   -4.3691   59.5780 N   0  0  0  0  0  0  0  0  0  0  0  0
   -4.2495   -4.3847   58.2879 C   0  0  0  0  0  0  0  0  0  0  0  0
   -2.7903   -0.9511   59.1758 N   0  0  0  0  0  0  0  0  0  0  0  0
   -3.5801    0.2542   59.1790 C   0  0  0  0  0  0  0  0  0  0  0  0
   -4.7972    0.2146   58.8576 O   0  0  0  0  0  0  0  0  0  0  0  0
   -1.8209   -0.8605   59.3217 H   0  0  0  0  0  0  0  0  0  0  0  0
   -2.9780    1.5627   59.5367 C   0  0  0  0  0  0  0  0  0  0  0  0
   -3.1167    2.1071   60.8303 C   0  0  0  0  0  0  0  0  0  0  0  0
   -2.5483    3.3471   61.1435 C   0  0  0  0  0  0  0  0  0  0  0  0
   -1.8488    4.0634   60.1698 C   0  0  0  0  0  0  0  0  0  0  0  0
   -1.7163    3.5422   58.8813 C   0  0  0  0  0  0  0  0  0  0  0  0
   -2.2791    2.3007   58.5629 C   0  0  0  0  0  0  0  0  0  0  0  0
   -5.3854   -8.9817   55.0637 C   0  0  0  0  0  0  0  0  0  0  0  0
   -6.3897   -9.8552   55.7593 C   0  0  0  0  0  0  0  0  0  0  0  0
   -6.1703  -11.1509   56.0819 N   0  0  0  0  0  0  0  0  0  0  0  0
   -7.2756  -11.6123   56.6618 N   0  0  0  0  0  0  0  0  0  0  0  0
   -8.1468  -10.5870   56.6764 C   0  0  0  0  0  0  0  0  0  0  0  0
   -9.4487  -10.6046   57.1712 C   0  0  0  0  0  0  0  0  0  0  0  0
  -10.1979   -9.4201   57.0586 C   0  0  0  0  0  0  0  0  0  0  0  0
   -9.6345   -8.2723   56.4616 C   0  0  0  0  0  0  0  0  0  0  0  0
   -8.3163   -8.3188   55.9802 C   0  0  0  0  0  0  0  0  0  0  0  0
   -7.6297   -9.4827   56.1216 N   0  0  0  0  0  0  0  0  0  0  0  0
  8  9  1  0  0  0
  9 13  1  0  0  0
 13 14  1  0  0  0
 14 15  2  0  0  0
 14 17  1  0  0  0
 17 18  2  0  0  0
 18 19  1  0  0  0
 19 20  2  0  0  0
 20 21  1  0  0  0
 21 22  2  0  0  0
  9 10  2  0  0  0
 10 11  1  0  0  0
 11 12  2  0  0  0
 12  1  1  0  0  0
  1  2  1  0  0  0
  2  3  1  0  0  0
  3  4  1  0  0  0
  4 23  1  0  0  0
 23 24  1  0  0  0
 24 25  2  0  0  0
 25 26  1  0  0  0
 26 27  2  0  0  0
 27 28  1  0  0  0
 28 29  2  0  0  0
 29 30  1  0  0  0
 30 31  2  0  0  0
 31 32  1  0  0  0
  4  5  1  0  0  0
  5  6  1  0  0  0
  6  7  1  0  0  0
 12  8  1  0  0  0
  7  1  1  0  0  0
 22 17  1  0  0  0
 32 24  1  0  0  0
 32 27  1  0  0  0
 13 16  1  0  0  0
M  END
> <minimizedAffinity>
-9.61384

> <CNNaffinity>
-1.0000000000

$$$$



 32 36  0  0  0  0  0  0  0  0999 V2000
    8.8533  -11.0885   35.1561 N   0  0  0  0  0  0  0  0  0  0  0  0
    9.5844   -9.8048   35.1998 C   0  0  0  0  0  0  0  0  0  0  0  0
    8.9909   -8.7131   34.2912 C   0  0  0  0  0  0  0  0  0  0  0  0
    7.5845   -8.2042   34.7117 C   0  0  0  0  0  0  0  0  0  0  0  0
    6.7190   -9.2355   35.4869 C   0  0  0  0  0  0  0  0  0  0  0  0
    6.4485  -10.5658   34.7614 C   0  0  0  0  0  0  0  0  0  0  0  0
    7.7029  -11.2932   34.2580 C   0  0  0  0  0  0  0  0  0  0  0  0
    9.9606  -13.6024   35.6124 S   0  0  0  0  0  0  0  0  0  0  0  0
   10.0207  -14.1046   37.2231 C   0  0  0  0  0  0  0  0  0  0  0  0
    9.5127  -13.1606   38.0451 N   0  0  0  0  0  0  0  0  0  0  0  0
    9.0862  -12.0733   37.4047 N   0  0  0  0  0  0  0  0  0  0  0  0
    9.2476  -12.1393   36.0641 C   0  0  0  0  0  0  0  0  0  0  0  0
   10.5337  -15.3548   37.7112 N   0  0  0  0  0  0  0  0  0  0  0  0
   11.9188  -15.6183   38.0090 C   0  0  0  0  0  0  0  0  0  0  0  0
   12.8023  -14.7708   37.7138 O   0  0  0  0  0  0  0  0  0  0  0  0
    9.8905  -16.0866   37.8529 H   0  0  0  0  0  0  0  0  0  0  0  0
   12.3358  -16.8927   38.6452 C   0  0  0  0  0  0  0  0  0  0  0  0
   11.5850  -18.0756   38.4837 C   0  0  0  0  0  0  0  0  0  0  0  0
   11.9917  -19.2644   39.1002 C   0  0  0  0  0  0  0  0  0  0  0  0
   13.1406  -19.2849   39.8938 C   0  0  0  0  0  0  0  0  0  0  0  0
   13.8851  -18.1174   40.0734 C   0  0  0  0  0  0  0  0  0  0  0  0
   13.4858  -16.9262   39.4563 C   0  0  0  0  0  0  0  0  0  0  0  0
    6.8469   -7.6229   33.4839 C   0  0  0  0  0  0  0  0  0  0  0  0
    6.1505   -6.3291   33.7949 C   0  0  0  0  0  0  0  0  0  0  0  0
    5.5699   -6.0498   34.9849 N   0  0  0  0  0  0  0  0  0  0  0  0
    5.0354   -4.8345   34.8946 N   0  0  0  0  0  0  0  0  0  0  0  0
    5.2994   -4.4010   33.6485 C   0  0  0  0  0  0  0  0  0  0  0  0
    4.9178   -3.1835   33.0896 C   0  0  0  0  0  0  0  0  0  0  0  0
    5.2782   -2.9465   31.7514 C   0  0  0  0  0  0  0  0  0  0  0  0
    5.9949   -3.9186   31.0215 C   0  0  0  0  0  0  0  0  0  0  0  0
    6.3490   -5.1276   31.6414 C   0  0  0  0  0  0  0  0  0  0  0  0
    5.9874   -5.3054   32.9389 N   0  0  0  0  0  0  0  0  0  0  0  0
  8  9  1  0  0  0
  9 13  1  0  0  0
 13 14  1  0  0  0
 14 15  2  0  0  0
 14 17  1  0  0  0
 17 18  2  0  0  0
 18 19  1  0  0  0
 19 20  2  0  0  0
 20 21  1  0  0  0
 21 22  2  0  0  0
  9 10  2  0  0  0
 10 11  1  0  0  0
 11 12  2  0  0  0
 12  1  1  0  0  0
  1  2  1  0  0  0
  2  3  1  0  0  0
  3  4  1  0  0  0
  4 23  1  0  0  0
 23 24  1  0  0  0
 24 25  2  0  0  0
 25 26  1  0  0  0
 26 27  2  0  0  0
 27 28  1  0  0  0
 28 29  2  0  0  0
 29 30  1  0  0  0
 30 31  2  0  0  0
 31 32  1  0  0  0
  4  5  1  0  0  0
  5  6  1  0  0  0
  6  7  1  0  0  0
 12  8  1  0  0  0
  7  1  1  0  0  0
 22 17  1  0  0  0
 32 24  1  0  0  0
 32 27  1  0  0  0
 13 16  1  0  0  0
M  END
> <minimizedAffinity>
-9.32881

> <CNNaffinity>
-1.0000000000

$$$$



 32 36  0  0  0  0  0  0  0  0999 V2000
   -5.2364   -7.9189   56.9745 N   0  0  0  0  0  0  0  0  0  0  0  0
   -5.4561   -6.7538   57.8571 C   0  0  0  0  0  0  0  0  0  0  0  0
   -4.3782   -5.6617   57.7350 C   0  0  0  0  0  0  0  0  0  0  0  0
   -4.3438   -4.9253   56.3675 C   0  0  0  0  0  0  0  0  0  0  0  0
   -4.8573   -5.7587   55.1611 C   0  0  0  0  0  0  0  0  0  0  0  0
   -4.1260   -7.0884   54.9034 C   0  0  0  0  0  0  0  0  0  0  0  0
   -4.0428   -8.0250   56.1167 C   0  0  0  0  0  0  0  0  0  0  0  0
   -7.7251   -8.8086   56.0980 S   0  0  0  0  0  0  0  0  0  0  0  0
   -8.1724  -10.3608   56.5887 C   0  0  0  0  0  0  0  0  0  0  0  0
   -7.2051  -10.9296   57.3409 N   0  0  0  0  0  0  0  0  0  0  0  0
   -6.1431  -10.1459   57.5208 N   0  0  0  0  0  0  0  0  0  0  0  0
   -6.2530   -8.9421   56.9154 C   0  0  0  0  0  0  0  0  0  0  0  0
   -9.4016  -11.0362   56.2767 N   0  0  0  0  0  0  0  0  0  0  0  0
  -10.5799  -11.0298   57.1062 C   0  0  0  0  0  0  0  0  0  0  0  0
  -10.5407  -10.5221   58.2580 O   0  0  0  0  0  0  0  0  0  0  0  0
   -9.4419  -11.5413   55.4326 H   0  0  0  0  0  0  0  0  0  0  0  0
  -11.8504  -11.6356   56.6355 C   0  0  0  0  0  0  0  0  0  0  0  0
  -13.0700  -10.9304   56.7006 C   0  0  0  0  0  0  0  0  0  0  0  0
  -14.2580  -11.5243   56.2595 C   0  0  0  0  0  0  0  0  0  0  0  0
  -14.2467  -12.8294   55.7626 C   0  0  0  0  0  0  0  0  0  0  0  0
  -13.0483  -13.5437   55.7059 C   0  0  0  0  0  0  0  0  0  0  0  0
  -11.8561  -12.9538   56.1418 C   0  0  0  0  0  0  0  0  0  0  0  0
   -2.9344   -4.3407   56.1203 C   0  0  0  0  0  0  0  0  0  0  0  0
   -2.4402   -3.5286   57.2830 C   0  0  0  0  0  0  0  0  0  0  0  0
   -1.3545   -3.8510   58.0235 N   0  0  0  0  0  0  0  0  0  0  0  0
   -1.2288   -2.9277   58.9736 N   0  0  0  0  0  0  0  0  0  0  0  0
   -2.2446   -2.0640   58.7931 C   0  0  0  0  0  0  0  0  0  0  0  0
   -2.5321   -0.9403   59.5643 C   0  0  0  0  0  0  0  0  0  0  0  0
   -3.6672   -0.1890   59.2119 C   0  0  0  0  0  0  0  0  0  0  0  0
   -4.4706   -0.5781   58.1189 C   0  0  0  0  0  0  0  0  0  0  0  0
   -4.1284   -1.7227   57.3813 C   0  0  0  0  0  0  0  0  0  0  0  0
   -3.0167   -2.4092   57.7541 N   0  0  0  0  0  0  0  0  0  0  0  0
  8  9  1  0  0  0
  9 13  1  0  0  0
 13 14  1  0  0  0
 14 15  2  0  0  0
 14 17  1  0  0  0
 17 18  2  0  0  0
 18 19  1  0  0  0
 19 20  2  0  0  0
 20 21  1  0  0  0
 21 22  2  0  0  0
  9 10  2  0  0  0
 10 11  1  0  0  0
 11 12  2  0  0  0
 12  1  1  0  0  0
  1  2  1  0  0  0
  2  3  1  0  0  0
  3  4  1  0  0  0
  4 23  1  0  0  0
 23 24  1  0  0  0
 24 25  2  0  0  0
 25 26  1  0  0  0
 26 27  2  0  0  0
 27 28  1  0  0  0
 28 29  2  0  0  0
 29 30  1  0  0  0
 30 31  2  0  0  0
 31 32  1  0  0  0
  4  5  1  0  0  0
  5  6  1  0  0  0
  6  7  1  0  0  0
 12  8  1  0  0  0
  7  1  1  0  0  0
 22 17  1  0  0  0
 32 24  1  0  0  0
 32 27  1  0  0  0
 13 16  1  0  0  0
M  END
> <minimizedAffinity>
-9.19445

> <CNNaffinity>
-1.0000000000

$$$$



 32 36  0  0  0  0  0  0  0  0999 V2000
    8.4327   -9.5171   34.5963 N   0  0  0  0  0  0  0  0  0  0  0  0
    9.9028   -9.6001   34.7252 C   0  0  0  0  0  0  0  0  0  0  0  0
   10.3937  -10.8036   35.5499 C   0  0  0  0  0  0  0  0  0  0  0  0
   10.1294  -12.1916   34.9043 C   0  0  0  0  0  0  0  0  0  0  0  0
    8.9013  -12.2497   33.9545 C   0  0  0  0  0  0  0  0  0  0  0  0
    7.5516  -11.8485   34.5763 C   0  0  0  0  0  0  0  0  0  0  0  0
    7.5419  -10.4790   35.2695 C   0  0  0  0  0  0  0  0  0  0  0  0
    8.0291   -6.8351   33.9658 S   0  0  0  0  0  0  0  0  0  0  0  0
    7.1031   -6.5288   32.5879 C   0  0  0  0  0  0  0  0  0  0  0  0
    6.7120   -7.6805   32.0000 N   0  0  0  0  0  0  0  0  0  0  0  0
    7.1373   -8.7714   32.6352 N   0  0  0  0  0  0  0  0  0  0  0  0
    7.8708   -8.5013   33.7383 C   0  0  0  0  0  0  0  0  0  0  0  0
    6.7492   -5.2386   32.0638 N   0  0  0  0  0  0  0  0  0  0  0  0
    5.5565   -4.5070   32.4085 C   0  0  0  0  0  0  0  0  0  0  0  0
    4.6631   -5.0479   33.1122 O   0  0  0  0  0  0  0  0  0  0  0  0
    7.3682   -4.8231   31.4208 H   0  0  0  0  0  0  0  0  0  0  0  0
    5.3447   -3.1187   31.9283 C   0  0  0  0  0  0  0  0  0  0  0  0
    5.8494   -2.6854   30.6848 C   0  0  0  0  0  0  0  0  0  0  0  0
    5.6458   -1.3690   30.2555 C   0  0  0  0  0  0  0  0  0  0  0  0
    4.9505   -0.4677   31.0645 C   0  0  0  0  0  0  0  0  0  0  0  0
    4.4578   -0.8800   32.3043 C   0  0  0  0  0  0  0  0  0  0  0  0
    4.6548   -2.1964   32.7375 C   0  0  0  0  0  0  0  0  0  0  0  0
   10.0761  -13.2800   36.0006 C   0  0  0  0  0  0  0  0  0  0  0  0
   11.2348  -14.2321   35.9180 C   0  0  0  0  0  0  0  0  0  0  0  0
   11.9868  -14.4136   34.8078 N   0  0  0  0  0  0  0  0  0  0  0  0
   12.9004  -15.3393   35.0895 N   0  0  0  0  0  0  0  0  0  0  0  0
   12.6821  -15.7046   36.3660 C   0  0  0  0  0  0  0  0  0  0  0  0
   13.3842  -16.6641   37.0915 C   0  0  0  0  0  0  0  0  0  0  0  0
   12.9661  -16.9087   38.4115 C   0  0  0  0  0  0  0  0  0  0  0  0
   11.8742  -16.2012   38.9579 C   0  0  0  0  0  0  0  0  0  0  0  0
   11.2060  -15.2469   38.1742 C   0  0  0  0  0  0  0  0  0  0  0  0
   11.6540  -15.0387   36.9085 N   0  0  0  0  0  0  0  0  0  0  0  0
  8  9  1  0  0  0
  9 13  1  0  0  0
 13 14  1  0  0  0
 14 15  2  0  0  0
 14 17  1  0  0  0
 17 18  2  0  0  0
 18 19  1  0  0  0
 19 20  2  0  0  0
 20 21  1  0  0  0
 21 22  2  0  0  0
  9 10  2  0  0  0
 10 11  1  0  0  0
 11 12  2  0  0  0
 12  1  1  0  0  0
  1  2  1  0  0  0
  2  3  1  0  0  0
  3  4  1  0  0  0
  4 23  1  0  0  0
 23 24  1  0  0  0
 24 25  2  0  0  0
 25 26  1  0  0  0
 26 27  2  0  0  0
 27 28  1  0  0  0
 28 29  2  0  0  0
 29 30  1  0  0  0
 30 31  2  0  0  0
 31 32  1  0  0  0
  4  5  1  0  0  0
  5  6  1  0  0  0
  6  7  1  0  0  0
 12  8  1  0  0  0
  7  1  1  0  0  0
 22 17  1  0  0  0
 32 24  1  0  0  0
 32 27  1  0  0  0
 13 16  1  0  0  0
M  END
> <minimizedAffinity>
-9.11796

> <CNNaffinity>
-1.0000000000

$$$$



 32 36  0  0  0  0  0  0  0  0999 V2000
    6.4812   -8.5920   34.6016 N   0  0  0  0  0  0  0  0  0  0  0  0
    5.9791   -9.1598   35.8705 C   0  0  0  0  0  0  0  0  0  0  0  0
    6.3195  -10.6476   36.0706 C   0  0  0  0  0  0  0  0  0  0  0  0
    7.8317  -10.9551   36.2504 C   0  0  0  0  0  0  0  0  0  0  0  0
    8.7922   -9.9424   35.5682 C   0  0  0  0  0  0  0  0  0  0  0  0
    8.6113   -9.7629   34.0502 C   0  0  0  0  0  0  0  0  0  0  0  0
    7.1818   -9.4229   33.6062 C   0  0  0  0  0  0  0  0  0  0  0  0
    6.9480   -6.3306   33.0454 S   0  0  0  0  0  0  0  0  0  0  0  0
    6.3152   -4.8810   33.6357 C   0  0  0  0  0  0  0  0  0  0  0  0
    5.6571   -5.0768   34.7991 N   0  0  0  0  0  0  0  0  0  0  0  0
    5.6635   -6.3455   35.2052 N   0  0  0  0  0  0  0  0  0  0  0  0
    6.3289   -7.1752   34.3707 C   0  0  0  0  0  0  0  0  0  0  0  0
    6.4289   -3.5857   33.0245 N   0  0  0  0  0  0  0  0  0  0  0  0
    5.3333   -2.8441   32.4532 C   0  0  0  0  0  0  0  0  0  0  0  0
    4.1992   -3.3790   32.3365 O   0  0  0  0  0  0  0  0  0  0  0  0
    7.3225   -3.1737   32.9937 H   0  0  0  0  0  0  0  0  0  0  0  0
    5.5193   -1.4521   31.9729 C   0  0  0  0  0  0  0  0  0  0  0  0
    6.3306   -1.1614   30.8567 C   0  0  0  0  0  0  0  0  0  0  0  0
    6.4994    0.1595   30.4263 C   0  0  0  0  0  0  0  0  0  0  0  0
    5.8744    1.2046   31.1100 C   0  0  0  0  0  0  0  0  0  0  0  0
    5.0798    0.9317   32.2252 C   0  0  0  0  0  0  0  0  0  0  0  0
    4.9039   -0.3877   32.6582 C   0  0  0  0  0  0  0  0  0  0  0  0
    8.1246  -12.4146   35.8341 C   0  0  0  0  0  0  0  0  0  0  0  0
    9.3826  -12.9461   36.4591 C   0  0  0  0  0  0  0  0  0  0  0  0
    9.4556  -13.4241   37.7229 N   0  0  0  0  0  0  0  0  0  0  0  0
   10.7178  -13.7839   37.9430 N   0  0  0  0  0  0  0  0  0  0  0  0
   11.3877  -13.5131   36.8080 C   0  0  0  0  0  0  0  0  0  0  0  0
   12.7471  -13.7067   36.5744 C   0  0  0  0  0  0  0  0  0  0  0  0
   13.2466  -13.3252   35.3166 C   0  0  0  0  0  0  0  0  0  0  0  0
   12.3876  -12.7672   34.3460 C   0  0  0  0  0  0  0  0  0  0  0  0
   11.0261  -12.5960   34.6432 C   0  0  0  0  0  0  0  0  0  0  0  0
   10.5893  -12.9897   35.8680 N   0  0  0  0  0  0  0  0  0  0  0  0
  8  9  1  0  0  0
  9 13  1  0  0  0
 13 14  1  0  0  0
 14 15  2  0  0  0
 14 17  1  0  0  0
 17 18  2  0  0  0
 18 19  1  0  0  0
 19 20  2  0  0  0
 20 21  1  0  0  0
 21 22  2  0  0  0
  9 10  2  0  0  0
 10 11  1  0  0  0
 11 12  2  0  0  0
 12  1  1  0  0  0
  1  2  1  0  0  0
  2  3  1  0  0  0
  3  4  1  0  0  0
  4 23  1  0  0  0
 23 24  1  0  0  0
 24 25  2  0  0  0
 25 26  1  0  0  0
 26 27  2  0  0  0
 27 28  1  0  0  0
 28 29  2  0  0  0
 29 30  1  0  0  0
 30 31  2  0  0  0
 31 32  1  0  0  0
  4  5  1  0  0  0
  5  6  1  0  0  0
  6  7  1  0  0  0
 12  8  1  0  0  0
  7  1  1  0  0  0
 22 17  1  0  0  0
 32 24  1  0  0  0
 32 27  1  0  0  0
 13 16  1  0  0  0
M  END
> <minimizedAffinity>
-8.80054

> <CNNaffinity>
-1.0000000000

$$$$



 32 36  0  0  0  0  0  0  0  0999 V2000
   15.9372  -22.1550   46.0364 N   0  0  0  0  0  0  0  0  0  0  0  0
   15.7718  -23.6129   46.2143 C   0  0  0  0  0  0  0  0  0  0  0  0
   15.8149  -24.0751   47.6820 C   0  0  0  0  0  0  0  0  0  0  0  0
   14.6268  -23.5889   48.5569 C   0  0  0  0  0  0  0  0  0  0  0  0
   13.9800  -22.2524   48.0999 C   0  0  0  0  0  0  0  0  0  0  0  0
   14.9256  -21.0402   48.0229 C   0  0  0  0  0  0  0  0  0  0  0  0
   16.1894  -21.2601   47.1798 C   0  0  0  0  0  0  0  0  0  0  0  0
   14.3120  -21.2553   43.9620 S   0  0  0  0  0  0  0  0  0  0  0  0
   15.1103  -20.7093   42.5784 C   0  0  0  0  0  0  0  0  0  0  0  0
   16.4505  -20.7954   42.7253 N   0  0  0  0  0  0  0  0  0  0  0  0
   16.8242  -21.2863   43.9059 N   0  0  0  0  0  0  0  0  0  0  0  0
   15.7855  -21.5990   44.7128 C   0  0  0  0  0  0  0  0  0  0  0  0
   14.4984  -20.2082   41.3787 N   0  0  0  0  0  0  0  0  0  0  0  0
   13.8567  -18.9240   41.2544 C   0  0  0  0  0  0  0  0  0  0  0  0
   13.6750  -18.2057   42.2727 O   0  0  0  0  0  0  0  0  0  0  0  0
   14.5192  -20.7858   40.5817 H   0  0  0  0  0  0  0  0  0  0  0  0
   13.3793  -18.4313   39.9383 C   0  0  0  0  0  0  0  0  0  0  0  0
   13.9780  -17.3213   39.3072 C   0  0  0  0  0  0  0  0  0  0  0  0
   13.5059  -16.8678   38.0702 C   0  0  0  0  0  0  0  0  0  0  0  0
   12.4256  -17.5050   37.4560 C   0  0  0  0  0  0  0  0  0  0  0  0
   11.8148  -18.5963   38.0769 C   0  0  0  0  0  0  0  0  0  0  0  0
   12.2849  -19.0571   39.3122 C   0  0  0  0  0  0  0  0  0  0  0  0
   15.0463  -23.5601   50.0444 C   0  0  0  0  0  0  0  0  0  0  0  0
   13.8880  -23.2853   50.9600 C   0  0  0  0  0  0  0  0  0  0  0  0
   12.9009  -24.1742   51.2185 N   0  0  0  0  0  0  0  0  0  0  0  0
   12.0402  -23.5875   52.0468 N   0  0  0  0  0  0  0  0  0  0  0  0
   12.5206  -22.3510   52.2719 C   0  0  0  0  0  0  0  0  0  0  0  0
   11.9431  -21.3626   53.0654 C   0  0  0  0  0  0  0  0  0  0  0  0
   12.6055  -20.1244   53.1379 C   0  0  0  0  0  0  0  0  0  0  0  0
   13.8044  -19.9126   52.4245 C   0  0  0  0  0  0  0  0  0  0  0  0
   14.3354  -20.9490   51.6401 C   0  0  0  0  0  0  0  0  0  0  0  0
   13.6645  -22.1302   51.6104 N   0  0  0  0  0  0  0  0  0  0  0  0
  8  9  1  0  0  0
  9 13  1  0  0  0
 13 14  1  0  0  0
 14 15  2  0  0  0
 14 17  1  0  0  0
 17 18  2  0  0  0
 18 19  1  0  0  0
 19 20  2  0  0  0
 20 21  1  0  0  0
 21 22  2  0  0  0
  9 10  2  0  0  0
 10 11  1  0  0  0
 11 12  2  0  0  0
 12  1  1  0  0  0
  1  2  1  0  0  0
  2  3  1  0  0  0
  3  4  1  0  0  0
  4 23  1  0  0  0
 23 24  1  0  0  0
 24 25  2  0  0  0
 25 26  1  0  0  0
 26 27  2  0  0  0
 27 28  1  0  0  0
 28 29  2  0  0  0
 29 30  1  0  0  0
 30 31  2  0  0  0
 31 32  1  0  0  0
  4  5  1  0  0  0
  5  6  1  0  0  0
  6  7  1  0  0  0
 12  8  1  0  0  0
  7  1  1  0  0  0
 22 17  1  0  0  0
 32 24  1  0  0  0
 32 27  1  0  0  0
 13 16  1  0  0  0
M  END
> <minimizedAffinity>
-8.74070

> <CNNaffinity>
-1.0000000000

$$$$



 32 36  0  0  0  0  0  0  0  0999 V2000
   -8.7793   -9.8065   55.1087 N   0  0  0  0  0  0  0  0  0  0  0  0
   -7.9881   -9.8687   56.3556 C   0  0  0  0  0  0  0  0  0  0  0  0
   -6.6392   -9.1308   56.2806 C   0  0  0  0  0  0  0  0  0  0  0  0
   -6.7440   -7.5873   56.1380 C   0  0  0  0  0  0  0  0  0  0  0  0
   -8.0364   -7.0796   55.4412 C   0  0  0  0  0  0  0  0  0  0  0  0
   -8.2899   -7.6177   54.0215 C   0  0  0  0  0  0  0  0  0  0  0  0
   -8.2618   -9.1474   53.8965 C   0  0  0  0  0  0  0  0  0  0  0  0
  -11.5358   -9.4636   55.3032 S   0  0  0  0  0  0  0  0  0  0  0  0
  -12.4674  -10.8666   55.1857 C   0  0  0  0  0  0  0  0  0  0  0  0
  -11.6869  -11.9533   54.9993 N   0  0  0  0  0  0  0  0  0  0  0  0
  -10.3858  -11.6709   54.9561 N   0  0  0  0  0  0  0  0  0  0  0  0
  -10.1144  -10.3555   55.1098 C   0  0  0  0  0  0  0  0  0  0  0  0
  -13.8996  -10.9521   55.2641 N   0  0  0  0  0  0  0  0  0  0  0  0
  -14.6675  -10.8388   56.4782 C   0  0  0  0  0  0  0  0  0  0  0  0
  -14.0851  -10.7931   57.5939 O   0  0  0  0  0  0  0  0  0  0  0  0
  -14.3934  -11.0992   54.4252 H   0  0  0  0  0  0  0  0  0  0  0  0
  -16.1507  -10.7958   56.4444 C   0  0  0  0  0  0  0  0  0  0  0  0
  -16.8565   -9.5927   56.6523 C   0  0  0  0  0  0  0  0  0  0  0  0
  -18.2557   -9.5767   56.6252 C   0  0  0  0  0  0  0  0  0  0  0  0
  -18.9661  -10.7587   56.4048 C   0  0  0  0  0  0  0  0  0  0  0  0
  -18.2796  -11.9591   56.2115 C   0  0  0  0  0  0  0  0  0  0  0  0
  -16.8802  -11.9811   56.2336 C   0  0  0  0  0  0  0  0  0  0  0  0
   -5.4625   -7.0322   55.4754 C   0  0  0  0  0  0  0  0  0  0  0  0
   -4.9705   -5.7797   56.1423 C   0  0  0  0  0  0  0  0  0  0  0  0
   -4.7460   -4.6146   55.4917 N   0  0  0  0  0  0  0  0  0  0  0  0
   -4.2983   -3.7363   56.3855 N   0  0  0  0  0  0  0  0  0  0  0  0
   -4.2562   -4.3877   57.5621 C   0  0  0  0  0  0  0  0  0  0  0  0
   -3.8324   -3.8747   58.7857 C   0  0  0  0  0  0  0  0  0  0  0  0
   -3.8443   -4.7457   59.8896 C   0  0  0  0  0  0  0  0  0  0  0  0
   -4.2694   -6.0829   59.7401 C   0  0  0  0  0  0  0  0  0  0  0  0
   -4.6836   -6.5406   58.4790 C   0  0  0  0  0  0  0  0  0  0  0  0
   -4.6642   -5.6585   57.4457 N   0  0  0  0  0  0  0  0  0  0  0  0
  8  9  1  0  0  0
  9 13  1  0  0  0
 13 14  1  0  0  0
 14 15  2  0  0  0
 14 17  1  0  0  0
 17 18  2  0  0  0
 18 19  1  0  0  0
 19 20  2  0  0  0
 20 21  1  0  0  0
 21 22  2  0  0  0
  9 10  2  0  0  0
 10 11  1  0  0  0
 11 12  2  0  0  0
 12  1  1  0  0  0
  1  2  1  0  0  0
  2  3  1  0  0  0
  3  4  1  0  0  0
  4 23  1  0  0  0
 23 24  1  0  0  0
 24 25  2  0  0  0
 25 26  1  0  0  0
 26 27  2  0  0  0
 27 28  1  0  0  0
 28 29  2  0  0  0
 29 30  1  0  0  0
 30 31  2  0  0  0
 31 32  1  0  0  0
  4  5  1  0  0  0
  5  6  1  0  0  0
  6  7  1  0  0  0
 12  8  1  0  0  0
  7  1  1  0  0  0
 22 17  1  0  0  0
 32 24  1  0  0  0
 32 27  1  0  0  0
 13 16  1  0  0  0
M  END
> <minimizedAffinity>
-8.68756

> <CNNaffinity>
-1.0000000000

$$$$



 32 36  0  0  0  0  0  0  0  0999 V2000
  -10.3170  -11.0946   57.1465 N   0  0  0  0  0  0  0  0  0  0  0  0
  -11.3105  -10.1289   57.6547 C   0  0  0  0  0  0  0  0  0  0  0  0
  -12.6891  -10.7548   57.9452 C   0  0  0  0  0  0  0  0  0  0  0  0
  -13.4126  -11.3327   56.6952 C   0  0  0  0  0  0  0  0  0  0  0  0
  -12.4804  -12.1006   55.7251 C   0  0  0  0  0  0  0  0  0  0  0  0
  -11.5687  -13.1368   56.4061 C   0  0  0  0  0  0  0  0  0  0  0  0
  -10.4962  -12.5434   57.3443 C   0  0  0  0  0  0  0  0  0  0  0  0
   -7.6304  -11.2501   56.4144 S   0  0  0  0  0  0  0  0  0  0  0  0
   -7.1187  -10.1054   55.2925 C   0  0  0  0  0  0  0  0  0  0  0  0
   -8.1168   -9.2614   54.9486 N   0  0  0  0  0  0  0  0  0  0  0  0
   -9.2672   -9.5363   55.5600 N   0  0  0  0  0  0  0  0  0  0  0  0
   -9.1882  -10.5915   56.4036 C   0  0  0  0  0  0  0  0  0  0  0  0
   -5.7787  -10.0077   54.7955 N   0  0  0  0  0  0  0  0  0  0  0  0
   -4.6485   -9.7175   55.6304 C   0  0  0  0  0  0  0  0  0  0  0  0
   -3.5600  -10.3128   55.4076 O   0  0  0  0  0  0  0  0  0  0  0  0
   -5.6257  -10.1465   53.8329 H   0  0  0  0  0  0  0  0  0  0  0  0
   -4.7155   -8.7097   56.7146 C   0  0  0  0  0  0  0  0  0  0  0  0
   -4.7987   -7.3370   56.4167 C   0  0  0  0  0  0  0  0  0  0  0  0
   -4.8494   -6.3920   57.4461 C   0  0  0  0  0  0  0  0  0  0  0  0
   -4.8061   -6.8057   58.7798 C   0  0  0  0  0  0  0  0  0  0  0  0
   -4.7073   -8.1650   59.0865 C   0  0  0  0  0  0  0  0  0  0  0  0
   -4.6567   -9.1141   58.0604 C   0  0  0  0  0  0  0  0  0  0  0  0
  -14.1679  -10.2343   55.9119 C   0  0  0  0  0  0  0  0  0  0  0  0
  -15.6541  -10.3059   56.1320 C   0  0  0  0  0  0  0  0  0  0  0  0
  -16.3701   -9.3293   56.7363 N   0  0  0  0  0  0  0  0  0  0  0  0
  -17.6416   -9.7186   56.7577 N   0  0  0  0  0  0  0  0  0  0  0  0
  -17.6737  -10.9256   56.1638 C   0  0  0  0  0  0  0  0  0  0  0  0
  -18.7980  -11.7173   55.9470 C   0  0  0  0  0  0  0  0  0  0  0  0
  -18.6072  -12.9457   55.2907 C   0  0  0  0  0  0  0  0  0  0  0  0
  -17.3189  -13.3397   54.8746 C   0  0  0  0  0  0  0  0  0  0  0  0
  -16.2243  -12.4970   55.1212 C   0  0  0  0  0  0  0  0  0  0  0  0
  -16.4573  -11.3219   55.7639 N   0  0  0  0  0  0  0  0  0  0  0  0
  8  9  1  0  0  0
  9 13  1  0  0  0
 13 14  1  0  0  0
 14 15  2  0  0  0
 14 17  1  0  0  0
 17 18  2  0  0  0
 18 19  1  0  0  0
 19 20  2  0  0  0
 20 21  1  0  0  0
 21 22  2  0  0  0
  9 10  2  0  0  0
 10 11  1  0  0  0
 11 12  2  0  0  0
 12  1  1  0  0  0
  1  2  1  0  0  0
  2  3  1  0  0  0
  3  4  1  0  0  0
  4 23  1  0  0  0
 23 24  1  0  0  0
 24 25  2  0  0  0
 25 26  1  0  0  0
 26 27  2  0  0  0
 27 28  1  0  0  0
 28 29  2  0  0  0
 29 30  1  0  0  0
 30 31  2  0  0  0
 31 32  1  0  0  0
  4  5  1  0  0  0
  5  6  1  0  0  0
  6  7  1  0  0  0
 12  8  1  0  0  0
  7  1  1  0  0  0
 22 17  1  0  0  0
 32 24  1  0  0  0
 32 27  1  0  0  0
 13 16  1  0  0  0
M  END
> <minimizedAffinity>
-8.80438

> <CNNaffinity>
-1.0000000000

$$$$



 32 36  0  0  0  0  0  0  0  0999 V2000
  -10.5916   -9.0779   56.1915 N   0  0  0  0  0  0  0  0  0  0  0  0
  -11.6335   -8.8057   55.1824 C   0  0  0  0  0  0  0  0  0  0  0  0
  -13.0699   -8.9160   55.7311 C   0  0  0  0  0  0  0  0  0  0  0  0
  -13.4651  -10.3367   56.2261 C   0  0  0  0  0  0  0  0  0  0  0  0
  -12.3499  -11.0614   57.0204 C   0  0  0  0  0  0  0  0  0  0  0  0
  -11.7053  -10.2121   58.1303 C   0  0  0  0  0  0  0  0  0  0  0  0
  -10.8906   -8.9994   57.6319 C   0  0  0  0  0  0  0  0  0  0  0  0
   -8.0395   -8.4237   55.2766 S   0  0  0  0  0  0  0  0  0  0  0  0
   -7.0112   -9.7278   55.0068 C   0  0  0  0  0  0  0  0  0  0  0  0
   -7.6226  -10.9068   55.2574 N   0  0  0  0  0  0  0  0  0  0  0  0
   -8.8808  -10.7655   55.6696 N   0  0  0  0  0  0  0  0  0  0  0  0
   -9.2822   -9.4749   55.7366 C   0  0  0  0  0  0  0  0  0  0  0  0
   -5.6667   -9.6075   54.5272 N   0  0  0  0  0  0  0  0  0  0  0  0
   -4.5384   -9.4033   55.3897 C   0  0  0  0  0  0  0  0  0  0  0  0
   -3.4564   -9.9930   55.1243 O   0  0  0  0  0  0  0  0  0  0  0  0
   -5.5091   -9.6680   53.5573 H   0  0  0  0  0  0  0  0  0  0  0  0
   -4.5994   -8.4883   56.5536 C   0  0  0  0  0  0  0  0  0  0  0  0
   -4.6145   -8.9942   57.8665 C   0  0  0  0  0  0  0  0  0  0  0  0
   -4.6844   -8.1238   58.9587 C   0  0  0  0  0  0  0  0  0  0  0  0
   -4.7510   -6.7438   58.7519 C   0  0  0  0  0  0  0  0  0  0  0  0
   -4.7528   -6.2317   57.4521 C   0  0  0  0  0  0  0  0  0  0  0  0
   -4.6828   -7.0982   56.3564 C   0  0  0  0  0  0  0  0  0  0  0  0
  -13.9288  -11.2408   55.0607 C   0  0  0  0  0  0  0  0  0  0  0  0
  -15.2747  -11.8574   55.3267 C   0  0  0  0  0  0  0  0  0  0  0  0
  -15.5063  -13.1906   55.3024 N   0  0  0  0  0  0  0  0  0  0  0  0
  -16.7922  -13.3798   55.5841 N   0  0  0  0  0  0  0  0  0  0  0  0
  -17.3175  -12.1559   55.7756 C   0  0  0  0  0  0  0  0  0  0  0  0
  -18.6367  -11.8585   56.1057 C   0  0  0  0  0  0  0  0  0  0  0  0
  -18.9715  -10.5036   56.2744 C   0  0  0  0  0  0  0  0  0  0  0  0
  -17.9928   -9.5016   56.1131 C   0  0  0  0  0  0  0  0  0  0  0  0
  -16.6788   -9.8648   55.7806 C   0  0  0  0  0  0  0  0  0  0  0  0
  -16.4043  -11.1869   55.6224 N   0  0  0  0  0  0  0  0  0  0  0  0
  8  9  1  0  0  0
  9 13  1  0  0  0
 13 14  1  0  0  0
 14 15  2  0  0  0
 14 17  1  0  0  0
 17 18  2  0  0  0
 18 19  1  0  0  0
 19 20  2  0  0  0
 20 21  1  0  0  0
 21 22  2  0  0  0
  9 10  2  0  0  0
 10 11  1  0  0  0
 11 12  2  0  0  0
 12  1  1  0  0  0
  1  2  1  0  0  0
  2  3  1  0  0  0
  3  4  1  0  0  0
  4 23  1  0  0  0
 23 24  1  0  0  0
 24 25  2  0  0  0
 25 26  1  0  0  0
 26 27  2  0  0  0
 27 28  1  0  0  0
 28 29  2  0  0  0
 29 30  1  0  0  0
 30 31  2  0  0  0
 31 32  1  0  0  0
  4  5  1  0  0  0
  5  6  1  0  0  0
  6  7  1  0  0  0
 12  8  1  0  0  0
  7  1  1  0  0  0
 22 17  1  0  0  0
 32 24  1  0  0  0
 32 27  1  0  0  0
 13 16  1  0  0  0
M  END
> <minimizedAffinity>
-8.72378

> <CNNaffinity>
-1.0000000000

$$$$



 32 36  0  0  0  0  0  0  0  0999 V2000
   -9.9618   -9.4377   55.3874 N   0  0  0  0  0  0  0  0  0  0  0  0
  -10.1926   -9.9896   54.0383 C   0  0  0  0  0  0  0  0  0  0  0  0
  -10.5607  -11.4866   54.0368 C   0  0  0  0  0  0  0  0  0  0  0  0
   -9.4474  -12.4261   54.5824 C   0  0  0  0  0  0  0  0  0  0  0  0
   -8.7194  -11.8807   55.8363 C   0  0  0  0  0  0  0  0  0  0  0  0
   -9.6578  -11.3768   56.9474 C   0  0  0  0  0  0  0  0  0  0  0  0
  -10.4791  -10.1208   56.5858 C   0  0  0  0  0  0  0  0  0  0  0  0
   -7.7166   -7.9297   54.7071 S   0  0  0  0  0  0  0  0  0  0  0  0
   -7.6348   -6.3997   55.4025 C   0  0  0  0  0  0  0  0  0  0  0  0
   -8.6853   -6.1651   56.2198 N   0  0  0  0  0  0  0  0  0  0  0  0
   -9.5418   -7.1831   56.2748 N   0  0  0  0  0  0  0  0  0  0  0  0
   -9.1714   -8.2383   55.5126 C   0  0  0  0  0  0  0  0  0  0  0  0
   -6.5612   -5.4752   55.1907 N   0  0  0  0  0  0  0  0  0  0  0  0
   -5.2281   -5.6922   55.6749 C   0  0  0  0  0  0  0  0  0  0  0  0
   -4.2553   -5.3537   54.9483 O   0  0  0  0  0  0  0  0  0  0  0  0
   -6.7475   -4.6496   54.6877 H   0  0  0  0  0  0  0  0  0  0  0  0
   -4.9670   -6.2611   57.0180 C   0  0  0  0  0  0  0  0  0  0  0  0
   -4.9859   -7.6526   57.2260 C   0  0  0  0  0  0  0  0  0  0  0  0
   -4.7503   -8.1804   58.4993 C   0  0  0  0  0  0  0  0  0  0  0  0
   -4.5053   -7.3264   59.5774 C   0  0  0  0  0  0  0  0  0  0  0  0
   -4.5003   -5.9426   59.3852 C   0  0  0  0  0  0  0  0  0  0  0  0
   -4.7350   -5.4100   58.1134 C   0  0  0  0  0  0  0  0  0  0  0  0
   -8.4019  -12.7665   53.4953 C   0  0  0  0  0  0  0  0  0  0  0  0
   -7.8072  -14.1338   53.6938 C   0  0  0  0  0  0  0  0  0  0  0  0
   -6.5125  -14.3470   54.0254 N   0  0  0  0  0  0  0  0  0  0  0  0
   -6.3342  -15.6613   54.1224 N   0  0  0  0  0  0  0  0  0  0  0  0
   -7.5264  -16.2220   53.8486 C   0  0  0  0  0  0  0  0  0  0  0  0
   -7.8250  -17.5817   53.8414 C   0  0  0  0  0  0  0  0  0  0  0  0
   -9.1473  -17.9519   53.5405 C   0  0  0  0  0  0  0  0  0  0  0  0
  -10.1179  -16.9676   53.2624 C   0  0  0  0  0  0  0  0  0  0  0  0
   -9.7555  -15.6123   53.2862 C   0  0  0  0  0  0  0  0  0  0  0  0
   -8.4637  -15.3034   53.5767 N   0  0  0  0  0  0  0  0  0  0  0  0
  8  9  1  0  0  0
  9 13  1  0  0  0
 13 14  1  0  0  0
 14 15  2  0  0  0
 14 17  1  0  0  0
 17 18  2  0  0  0
 18 19  1  0  0  0
 19 20  2  0  0  0
 20 21  1  0  0  0
 21 22  2  0  0  0
  9 10  2  0  0  0
 10 11  1  0  0  0
 11 12  2  0  0  0
 12  1  1  0  0  0
  1  2  1  0  0  0
  2  3  1  0  0  0
  3  4  1  0  0  0
  4 23  1  0  0  0
 23 24  1  0  0  0
 24 25  2  0  0  0
 25 26  1  0  0  0
 26 27  2  0  0  0
 27 28  1  0  0  0
 28 29  2  0  0  0
 29 30  1  0  0  0
 30 31  2  0  0  0
 31 32  1  0  0  0
  4  5  1  0  0  0
  5  6  1  0  0  0
  6  7  1  0  0  0
 12  8  1  0  0  0
  7  1  1  0  0  0
 22 17  1  0  0  0
 32 24  1  0  0  0
 32 27  1  0  0  0
 13 16  1  0  0  0
M  END
> <minimizedAffinity>
-8.68067

> <CNNaffinity>
-1.0000000000

$$$$



 32 36  0  0  0  0  0  0  0  0999 V2000
   -9.6401  -10.1639   56.4619 N   0  0  0  0  0  0  0  0  0  0  0  0
  -10.5207  -10.3782   57.6266 C   0  0  0  0  0  0  0  0  0  0  0  0
  -11.4469  -11.6024   57.4848 C   0  0  0  0  0  0  0  0  0  0  0  0
  -12.4729  -11.5047   56.3197 C   0  0  0  0  0  0  0  0  0  0  0  0
  -11.8911  -10.9065   55.0146 C   0  0  0  0  0  0  0  0  0  0  0  0
  -10.5561  -11.5298   54.5694 C   0  0  0  0  0  0  0  0  0  0  0  0
   -9.3630  -11.2527   55.5090 C   0  0  0  0  0  0  0  0  0  0  0  0
   -7.6451   -8.4994   55.4482 S   0  0  0  0  0  0  0  0  0  0  0  0
   -7.9116   -6.8495   55.6421 C   0  0  0  0  0  0  0  0  0  0  0  0
   -9.0654   -6.6035   56.3015 N   0  0  0  0  0  0  0  0  0  0  0  0
   -9.7258   -7.7120   56.6300 N   0  0  0  0  0  0  0  0  0  0  0  0
   -9.0955   -8.8463   56.2461 C   0  0  0  0  0  0  0  0  0  0  0  0
   -7.0059   -5.8303   55.2027 N   0  0  0  0  0  0  0  0  0  0  0  0
   -5.6279   -5.7773   55.5989 C   0  0  0  0  0  0  0  0  0  0  0  0
   -4.7647   -5.4279   54.7494 O   0  0  0  0  0  0  0  0  0  0  0  0
   -7.3461   -5.1312   54.5987 H   0  0  0  0  0  0  0  0  0  0  0  0
   -5.2008   -6.0793   56.9853 C   0  0  0  0  0  0  0  0  0  0  0  0
   -4.8155   -5.0470   57.8604 C   0  0  0  0  0  0  0  0  0  0  0  0
   -4.4022   -5.3421   59.1632 C   0  0  0  0  0  0  0  0  0  0  0  0
   -4.3586   -6.6680   59.6011 C   0  0  0  0  0  0  0  0  0  0  0  0
   -4.7236   -7.7018   58.7353 C   0  0  0  0  0  0  0  0  0  0  0  0
   -5.1380   -7.4117   57.4314 C   0  0  0  0  0  0  0  0  0  0  0  0
  -13.7304  -10.7039   56.7296 C   0  0  0  0  0  0  0  0  0  0  0  0
  -14.9992  -11.4525   56.4261 C   0  0  0  0  0  0  0  0  0  0  0  0
  -15.0352  -12.7663   56.1033 N   0  0  0  0  0  0  0  0  0  0  0  0
  -16.3083  -13.0964   55.9059 N   0  0  0  0  0  0  0  0  0  0  0  0
  -17.0224  -11.9751   56.1142 C   0  0  0  0  0  0  0  0  0  0  0  0
  -18.4056  -11.8416   56.0324 C   0  0  0  0  0  0  0  0  0  0  0  0
  -18.9504  -10.5747   56.3048 C   0  0  0  0  0  0  0  0  0  0  0  0
  -18.1101   -9.4957   56.6481 C   0  0  0  0  0  0  0  0  0  0  0  0
  -16.7226   -9.6934   56.7151 C   0  0  0  0  0  0  0  0  0  0  0  0
  -16.2420  -10.9346   56.4379 N   0  0  0  0  0  0  0  0  0  0  0  0
  8  9  1  0  0  0
  9 13  1  0  0  0
 13 14  1  0  0  0
 14 15  2  0  0  0
 14 17  1  0  0  0
 17 18  2  0  0  0
 18 19  1  0  0  0
 19 20  2  0  0  0
 20 21  1  0  0  0
 21 22  2  0  0  0
  9 10  2  0  0  0
 10 11  1  0  0  0
 11 12  2  0  0  0
 12  1  1  0  0  0
  1  2  1  0  0  0
  2  3  1  0  0  0
  3  4  1  0  0  0
  4 23  1  0  0  0
 23 24  1  0  0  0
 24 25  2  0  0  0
 25 26  1  0  0  0
 26 27  2  0  0  0
 27 28  1  0  0  0
 28 29  2  0  0  0
 29 30  1  0  0  0
 30 31  2  0  0  0
 31 32  1  0  0  0
  4  5  1  0  0  0
  5  6  1  0  0  0
  6  7  1  0  0  0
 12  8  1  0  0  0
  7  1  1  0  0  0
 22 17  1  0  0  0
 32 24  1  0  0  0
 32 27  1  0  0  0
 13 16  1  0  0  0
M  END
> <minimizedAffinity>
-8.64387

> <CNNaffinity>
-1.0000000000

$$$$



 32 36  0  0  0  0  0  0  0  0999 V2000
   -8.9599   -8.7567   55.0481 N   0  0  0  0  0  0  0  0  0  0  0  0
   -8.1757   -8.0480   56.0781 C   0  0  0  0  0  0  0  0  0  0  0  0
   -7.8419   -6.5895   55.7068 C   0  0  0  0  0  0  0  0  0  0  0  0
   -6.9381   -6.4333   54.4505 C   0  0  0  0  0  0  0  0  0  0  0  0
   -7.3016   -7.3908   53.2882 C   0  0  0  0  0  0  0  0  0  0  0  0
   -8.7989   -7.4199   52.9332 C   0  0  0  0  0  0  0  0  0  0  0  0
   -9.7152   -8.0140   54.0243 C   0  0  0  0  0  0  0  0  0  0  0  0
   -9.2884  -11.2040   56.3446 S   0  0  0  0  0  0  0  0  0  0  0  0
   -9.0549  -12.5674   55.3867 C   0  0  0  0  0  0  0  0  0  0  0  0
   -8.7085  -12.2370   54.1228 N   0  0  0  0  0  0  0  0  0  0  0  0
   -8.6462  -10.9218   53.9251 N   0  0  0  0  0  0  0  0  0  0  0  0
   -8.9295  -10.1982   55.0330 C   0  0  0  0  0  0  0  0  0  0  0  0
   -9.1653  -13.9142   55.8621 N   0  0  0  0  0  0  0  0  0  0  0  0
  -10.1239  -14.8527   55.3533 C   0  0  0  0  0  0  0  0  0  0  0  0
   -9.7769  -16.0554   55.2052 O   0  0  0  0  0  0  0  0  0  0  0  0
   -8.5527  -14.2106   56.5735 H   0  0  0  0  0  0  0  0  0  0  0  0
  -11.5167  -14.4556   55.0400 C   0  0  0  0  0  0  0  0  0  0  0  0
  -12.2931  -13.7529   55.9798 C   0  0  0  0  0  0  0  0  0  0  0  0
  -13.6106  -13.3927   55.6804 C   0  0  0  0  0  0  0  0  0  0  0  0
  -14.1688  -13.7391   54.4475 C   0  0  0  0  0  0  0  0  0  0  0  0
  -13.4120  -14.4507   53.5134 C   0  0  0  0  0  0  0  0  0  0  0  0
  -12.0936  -14.8130   53.8081 C   0  0  0  0  0  0  0  0  0  0  0  0
   -5.4408   -6.6009   54.7978 C   0  0  0  0  0  0  0  0  0  0  0  0
   -5.0189   -5.6979   55.9243 C   0  0  0  0  0  0  0  0  0  0  0  0
   -4.8156   -4.3674   55.7822 N   0  0  0  0  0  0  0  0  0  0  0  0
   -4.4593   -3.8868   56.9700 N   0  0  0  0  0  0  0  0  0  0  0  0
   -4.4543   -4.9361   57.8123 C   0  0  0  0  0  0  0  0  0  0  0  0
   -4.1527   -4.9116   59.1711 C   0  0  0  0  0  0  0  0  0  0  0  0
   -4.2230   -6.1286   59.8712 C   0  0  0  0  0  0  0  0  0  0  0  0
   -4.5892   -7.3154   59.2038 C   0  0  0  0  0  0  0  0  0  0  0  0
   -4.8826   -7.2756   57.8322 C   0  0  0  0  0  0  0  0  0  0  0  0
   -4.7956   -6.0768   57.1968 N   0  0  0  0  0  0  0  0  0  0  0  0
  8  9  1  0  0  0
  9 13  1  0  0  0
 13 14  1  0  0  0
 14 15  2  0  0  0
 14 17  1  0  0  0
 17 18  2  0  0  0
 18 19  1  0  0  0
 19 20  2  0  0  0
 20 21  1  0  0  0
 21 22  2  0  0  0
  9 10  2  0  0  0
 10 11  1  0  0  0
 11 12  2  0  0  0
 12  1  1  0  0  0
  1  2  1  0  0  0
  2  3  1  0  0  0
  3  4  1  0  0  0
  4 23  1  0  0  0
 23 24  1  0  0  0
 24 25  2  0  0  0
 25 26  1  0  0  0
 26 27  2  0  0  0
 27 28  1  0  0  0
 28 29  2  0  0  0
 29 30  1  0  0  0
 30 31  2  0  0  0
 31 32  1  0  0  0
  4  5  1  0  0  0
  5  6  1  0  0  0
  6  7  1  0  0  0
 12  8  1  0  0  0
  7  1  1  0  0  0
 22 17  1  0  0  0
 32 24  1  0  0  0
 32 27  1  0  0  0
 13 16  1  0  0  0
M  END
> <minimizedAffinity>
-8.55352

> <CNNaffinity>
-1.0000000000

$$$$



 32 36  0  0  0  0  0  0  0  0999 V2000
   -8.8838   -8.9590   53.0513 N   0  0  0  0  0  0  0  0  0  0  0  0
   -8.3039  -10.3119   52.9452 C   0  0  0  0  0  0  0  0  0  0  0  0
   -9.3087  -11.4412   53.2478 C   0  0  0  0  0  0  0  0  0  0  0  0
   -9.8617  -11.4416   54.7017 C   0  0  0  0  0  0  0  0  0  0  0  0
  -10.1997  -10.0323   55.2489 C   0  0  0  0  0  0  0  0  0  0  0  0
  -11.0483   -9.1682   54.2992 C   0  0  0  0  0  0  0  0  0  0  0  0
  -10.3411   -8.7508   52.9921 C   0  0  0  0  0  0  0  0  0  0  0  0
   -7.7233   -7.0743   54.7482 S   0  0  0  0  0  0  0  0  0  0  0  0
   -6.5888   -6.0583   54.0330 C   0  0  0  0  0  0  0  0  0  0  0  0
   -6.4496   -6.3147   52.7133 N   0  0  0  0  0  0  0  0  0  0  0  0
   -7.2243   -7.3116   52.2903 N   0  0  0  0  0  0  0  0  0  0  0  0
   -7.9937   -7.8454   53.2673 C   0  0  0  0  0  0  0  0  0  0  0  0
   -5.8882   -5.0188   54.7263 N   0  0  0  0  0  0  0  0  0  0  0  0
   -4.7493   -5.2606   55.5648 C   0  0  0  0  0  0  0  0  0  0  0  0
   -3.7951   -4.4371   55.5456 O   0  0  0  0  0  0  0  0  0  0  0  0
   -6.2040   -4.0922   54.6223 H   0  0  0  0  0  0  0  0  0  0  0  0
   -4.6850   -6.4242   56.4800 C   0  0  0  0  0  0  0  0  0  0  0  0
   -4.9920   -6.2830   57.8459 C   0  0  0  0  0  0  0  0  0  0  0  0
   -4.9170   -7.3839   58.7048 C   0  0  0  0  0  0  0  0  0  0  0  0
   -4.5251   -8.6312   58.2126 C   0  0  0  0  0  0  0  0  0  0  0  0
   -4.2026   -8.7789   56.8614 C   0  0  0  0  0  0  0  0  0  0  0  0
   -4.2764   -7.6808   55.9982 C   0  0  0  0  0  0  0  0  0  0  0  0
   -8.8971  -12.1494   55.6811 C   0  0  0  0  0  0  0  0  0  0  0  0
   -8.1796  -13.3011   55.0320 C   0  0  0  0  0  0  0  0  0  0  0  0
   -6.9138  -13.2249   54.5594 N   0  0  0  0  0  0  0  0  0  0  0  0
   -6.5991  -14.4170   54.0607 N   0  0  0  0  0  0  0  0  0  0  0  0
   -7.6813  -15.1959   54.2416 C   0  0  0  0  0  0  0  0  0  0  0  0
   -7.8120  -16.5352   53.8853 C   0  0  0  0  0  0  0  0  0  0  0  0
   -9.0325  -17.1670   54.1810 C   0  0  0  0  0  0  0  0  0  0  0  0
  -10.0696  -16.4535   54.8163 C   0  0  0  0  0  0  0  0  0  0  0  0
   -9.8769  -15.1046   55.1516 C   0  0  0  0  0  0  0  0  0  0  0  0
   -8.6820  -14.5355   54.8407 N   0  0  0  0  0  0  0  0  0  0  0  0
  8  9  1  0  0  0
  9 13  1  0  0  0
 13 14  1  0  0  0
 14 15  2  0  0  0
 14 17  1  0  0  0
 17 18  2  0  0  0
 18 19  1  0  0  0
 19 20  2  0  0  0
 20 21  1  0  0  0
 21 22  2  0  0  0
  9 10  2  0  0  0
 10 11  1  0  0  0
 11 12  2  0  0  0
 12  1  1  0  0  0
  1  2  1  0  0  0
  2  3  1  0  0  0
  3  4  1  0  0  0
  4 23  1  0  0  0
 23 24  1  0  0  0
 24 25  2  0  0  0
 25 26  1  0  0  0
 26 27  2  0  0  0
 27 28  1  0  0  0
 28 29  2  0  0  0
 29 30  1  0  0  0
 30 31  2  0  0  0
 31 32  1  0  0  0
  4  5  1  0  0  0
  5  6  1  0  0  0
  6  7  1  0  0  0
 12  8  1  0  0  0
  7  1  1  0  0  0
 22 17  1  0  0  0
 32 24  1  0  0  0
 32 27  1  0  0  0
 13 16  1  0  0  0
M  END
> <minimizedAffinity>
-8.46839

> <CNNaffinity>
-1.0000000000

$$$$



 32 36  0  0  0  0  0  0  0  0999 V2000
    8.9572  -11.2838   35.3312 N   0  0  0  0  0  0  0  0  0  0  0  0
    8.7582   -9.9535   35.9382 C   0  0  0  0  0  0  0  0  0  0  0  0
    7.3632   -9.3541   35.6713 C   0  0  0  0  0  0  0  0  0  0  0  0
    7.0570   -9.0726   34.1724 C   0  0  0  0  0  0  0  0  0  0  0  0
    7.5421  -10.1848   33.2093 C   0  0  0  0  0  0  0  0  0  0  0  0
    7.1432  -11.6101   33.6316 C   0  0  0  0  0  0  0  0  0  0  0  0
    7.8088  -12.1147   34.9297 C   0  0  0  0  0  0  0  0  0  0  0  0
   11.6904  -11.1559   35.8709 S   0  0  0  0  0  0  0  0  0  0  0  0
   12.6472  -12.2507   35.0243 C   0  0  0  0  0  0  0  0  0  0  0  0
   11.9124  -13.0082   34.1798 N   0  0  0  0  0  0  0  0  0  0  0  0
   10.6119  -12.7260   34.2224 N   0  0  0  0  0  0  0  0  0  0  0  0
   10.3057  -11.7339   35.0904 C   0  0  0  0  0  0  0  0  0  0  0  0
   14.0715  -12.3400   35.1488 N   0  0  0  0  0  0  0  0  0  0  0  0
   14.7717  -13.5823   35.3074 C   0  0  0  0  0  0  0  0  0  0  0  0
   15.8745  -13.7376   34.7170 O   0  0  0  0  0  0  0  0  0  0  0  0
   14.5961  -11.5073   35.1242 H   0  0  0  0  0  0  0  0  0  0  0  0
   14.2556  -14.6652   36.1773 C   0  0  0  0  0  0  0  0  0  0  0  0
   13.5067  -15.7268   35.6369 C   0  0  0  0  0  0  0  0  0  0  0  0
   13.0133  -16.7382   36.4669 C   0  0  0  0  0  0  0  0  0  0  0  0
   13.2521  -16.6944   37.8427 C   0  0  0  0  0  0  0  0  0  0  0  0
   13.9808  -15.6365   38.3917 C   0  0  0  0  0  0  0  0  0  0  0  0
   14.4767  -14.6227   37.5656 C   0  0  0  0  0  0  0  0  0  0  0  0
    7.6375   -7.7147   33.7145 C   0  0  0  0  0  0  0  0  0  0  0  0
    6.6970   -6.5755   33.9972 C   0  0  0  0  0  0  0  0  0  0  0  0
    6.1622   -6.3300   35.2160 N   0  0  0  0  0  0  0  0  0  0  0  0
    5.3882   -5.2541   35.1054 N   0  0  0  0  0  0  0  0  0  0  0  0
    5.4689   -4.8655   33.8197 C   0  0  0  0  0  0  0  0  0  0  0  0
    4.8329   -3.7718   33.2390 C   0  0  0  0  0  0  0  0  0  0  0  0
    5.0681   -3.5371   31.8731 C   0  0  0  0  0  0  0  0  0  0  0  0
    5.9206   -4.3875   31.1395 C   0  0  0  0  0  0  0  0  0  0  0  0
    6.5339   -5.4739   31.7819 C   0  0  0  0  0  0  0  0  0  0  0  0
    6.2718   -5.6638   33.1023 N   0  0  0  0  0  0  0  0  0  0  0  0
  8  9  1  0  0  0
  9 13  1  0  0  0
 13 14  1  0  0  0
 14 15  2  0  0  0
 14 17  1  0  0  0
 17 18  2  0  0  0
 18 19  1  0  0  0
 19 20  2  0  0  0
 20 21  1  0  0  0
 21 22  2  0  0  0
  9 10  2  0  0  0
 10 11  1  0  0  0
 11 12  2  0  0  0
 12  1  1  0  0  0
  1  2  1  0  0  0
  2  3  1  0  0  0
  3  4  1  0  0  0
  4 23  1  0  0  0
 23 24  1  0  0  0
 24 25  2  0  0  0
 25 26  1  0  0  0
 26 27  2  0  0  0
 27 28  1  0  0  0
 28 29  2  0  0  0
 29 30  1  0  0  0
 30 31  2  0  0  0
 31 32  1  0  0  0
  4  5  1  0  0  0
  5  6  1  0  0  0
  6  7  1  0  0  0
 12  8  1  0  0  0
  7  1  1  0  0  0
 22 17  1  0  0  0
 32 24  1  0  0  0
 32 27  1  0  0  0
 13 16  1  0  0  0
M  END
> <minimizedAffinity>
-8.43496

> <CNNaffinity>
-1.0000000000

$$$$



 32 36  0  0  0  0  0  0  0  0999 V2000
   11.0593  -12.9251   36.2179 N   0  0  0  0  0  0  0  0  0  0  0  0
   10.0755  -13.5867   35.3391 C   0  0  0  0  0  0  0  0  0  0  0  0
    9.4615  -12.6485   34.2812 C   0  0  0  0  0  0  0  0  0  0  0  0
    8.6297  -11.4715   34.8663 C   0  0  0  0  0  0  0  0  0  0  0  0
    9.2658  -10.8073   36.1130 C   0  0  0  0  0  0  0  0  0  0  0  0
   10.7545  -10.4506   35.9534 C   0  0  0  0  0  0  0  0  0  0  0  0
   11.7032  -11.6611   35.8204 C   0  0  0  0  0  0  0  0  0  0  0  0
   12.6857  -14.4727   37.8726 S   0  0  0  0  0  0  0  0  0  0  0  0
   12.1784  -14.5998   39.4718 C   0  0  0  0  0  0  0  0  0  0  0  0
   11.0198  -13.9366   39.6831 N   0  0  0  0  0  0  0  0  0  0  0  0
   10.5589  -13.3296   38.5913 N   0  0  0  0  0  0  0  0  0  0  0  0
   11.3401  -13.5171   37.5023 C   0  0  0  0  0  0  0  0  0  0  0  0
   12.8649  -15.3552   40.4769 N   0  0  0  0  0  0  0  0  0  0  0  0
   13.1498  -16.7558   40.3519 C   0  0  0  0  0  0  0  0  0  0  0  0
   14.2553  -17.1908   40.7734 O   0  0  0  0  0  0  0  0  0  0  0  0
   13.1558  -14.8899   41.2943 H   0  0  0  0  0  0  0  0  0  0  0  0
   12.1657  -17.7062   39.7825 C   0  0  0  0  0  0  0  0  0  0  0  0
   11.0187  -18.0755   40.5091 C   0  0  0  0  0  0  0  0  0  0  0  0
   10.1014  -18.9822   39.9691 C   0  0  0  0  0  0  0  0  0  0  0  0
   10.3248  -19.5368   38.7065 C   0  0  0  0  0  0  0  0  0  0  0  0
   11.4684  -19.1893   37.9834 C   0  0  0  0  0  0  0  0  0  0  0  0
   12.3887  -18.2825   38.5191 C   0  0  0  0  0  0  0  0  0  0  0  0
    7.1838  -11.9037   35.2026 C   0  0  0  0  0  0  0  0  0  0  0  0
    6.3212  -10.7338   35.5894 C   0  0  0  0  0  0  0  0  0  0  0  0
    6.6413   -9.4462   35.3227 N   0  0  0  0  0  0  0  0  0  0  0  0
    5.6614   -8.6824   35.7973 N   0  0  0  0  0  0  0  0  0  0  0  0
    4.7628   -9.5224   36.3428 C   0  0  0  0  0  0  0  0  0  0  0  0
    3.5612   -9.1742   36.9532 C   0  0  0  0  0  0  0  0  0  0  0  0
    2.7599  -10.2186   37.4466 C   0  0  0  0  0  0  0  0  0  0  0  0
    3.1755  -11.5596   37.3153 C   0  0  0  0  0  0  0  0  0  0  0  0
    4.3978  -11.8470   36.6889 C   0  0  0  0  0  0  0  0  0  0  0  0
    5.1406  -10.8037   36.2329 N   0  0  0  0  0  0  0  0  0  0  0  0
  8  9  1  0  0  0
  9 13  1  0  0  0
 13 14  1  0  0  0
 14 15  2  0  0  0
 14 17  1  0  0  0
 17 18  2  0  0  0
 18 19  1  0  0  0
 19 20  2  0  0  0
 20 21  1  0  0  0
 21 22  2  0  0  0
  9 10  2  0  0  0
 10 11  1  0  0  0
 11 12  2  0  0  0
 12  1  1  0  0  0
  1  2  1  0  0  0
  2  3  1  0  0  0
  3  4  1  0  0  0
  4 23  1  0  0  0
 23 24  1  0  0  0
 24 25  2  0  0  0
 25 26  1  0  0  0
 26 27  2  0  0  0
 27 28  1  0  0  0
 28 29  2  0  0  0
 29 30  1  0  0  0
 30 31  2  0  0  0
 31 32  1  0  0  0
  4  5  1  0  0  0
  5  6  1  0  0  0
  6  7  1  0  0  0
 12  8  1  0  0  0
  7  1  1  0  0  0
 22 17  1  0  0  0
 32 24  1  0  0  0
 32 27  1  0  0  0
 13 16  1  0  0  0
M  END
> <minimizedAffinity>
-8.41272

> <CNNaffinity>
-1.0000000000

$$$$



 32 36  0  0  0  0  0  0  0  0999 V2000
   11.5533  -12.9597   36.7143 N   0  0  0  0  0  0  0  0  0  0  0  0
   11.6947  -13.9236   37.8228 C   0  0  0  0  0  0  0  0  0  0  0  0
   13.1165  -14.5033   37.9610 C   0  0  0  0  0  0  0  0  0  0  0  0
   13.5931  -15.3434   36.7417 C   0  0  0  0  0  0  0  0  0  0  0  0
   13.2098  -14.7369   35.3687 C   0  0  0  0  0  0  0  0  0  0  0  0
   13.5450  -13.2423   35.2179 C   0  0  0  0  0  0  0  0  0  0  0  0
   12.7320  -12.2978   36.1288 C   0  0  0  0  0  0  0  0  0  0  0  0
    9.8837  -12.3322   34.5704 S   0  0  0  0  0  0  0  0  0  0  0  0
    8.2371  -12.3161   34.9162 C   0  0  0  0  0  0  0  0  0  0  0  0
    7.9969  -12.5883   36.2181 N   0  0  0  0  0  0  0  0  0  0  0  0
    9.1067  -12.8181   36.9170 N   0  0  0  0  0  0  0  0  0  0  0  0
   10.2366  -12.7171   36.1791 C   0  0  0  0  0  0  0  0  0  0  0  0
    7.2163  -12.0078   33.9597 N   0  0  0  0  0  0  0  0  0  0  0  0
    7.1164  -10.7397   33.2957 C   0  0  0  0  0  0  0  0  0  0  0  0
    6.7822  -10.7150   32.0806 O   0  0  0  0  0  0  0  0  0  0  0  0
    6.5499  -12.7006   33.7472 H   0  0  0  0  0  0  0  0  0  0  0  0
    7.3527   -9.4628   34.0093 C   0  0  0  0  0  0  0  0  0  0  0  0
    8.3874   -8.5965   33.6105 C   0  0  0  0  0  0  0  0  0  0  0  0
    8.6110   -7.3991   34.2972 C   0  0  0  0  0  0  0  0  0  0  0  0
    7.8135   -7.0604   35.3930 C   0  0  0  0  0  0  0  0  0  0  0  0
    6.7939   -7.9208   35.8073 C   0  0  0  0  0  0  0  0  0  0  0  0
    6.5661   -9.1195   35.1236 C   0  0  0  0  0  0  0  0  0  0  0  0
   13.0808  -16.8004   36.8147 C   0  0  0  0  0  0  0  0  0  0  0  0
   13.0912  -17.3317   38.2219 C   0  0  0  0  0  0  0  0  0  0  0  0
   14.1983  -17.3730   38.9991 N   0  0  0  0  0  0  0  0  0  0  0  0
   13.8465  -17.8931   40.1715 N   0  0  0  0  0  0  0  0  0  0  0  0
   12.5299  -18.1570   40.0839 C   0  0  0  0  0  0  0  0  0  0  0  0
   11.7217  -18.7002   41.0787 C   0  0  0  0  0  0  0  0  0  0  0  0
   10.3602  -18.8807   40.7790 C   0  0  0  0  0  0  0  0  0  0  0  0
    9.8537  -18.5166   39.5145 C   0  0  0  0  0  0  0  0  0  0  0  0
   10.7190  -17.9726   38.5530 C   0  0  0  0  0  0  0  0  0  0  0  0
   12.0283  -17.8222   38.8870 N   0  0  0  0  0  0  0  0  0  0  0  0
  8  9  1  0  0  0
  9 13  1  0  0  0
 13 14  1  0  0  0
 14 15  2  0  0  0
 14 17  1  0  0  0
 17 18  2  0  0  0
 18 19  1  0  0  0
 19 20  2  0  0  0
 20 21  1  0  0  0
 21 22  2  0  0  0
  9 10  2  0  0  0
 10 11  1  0  0  0
 11 12  2  0  0  0
 12  1  1  0  0  0
  1  2  1  0  0  0
  2  3  1  0  0  0
  3  4  1  0  0  0
  4 23  1  0  0  0
 23 24  1  0  0  0
 24 25  2  0  0  0
 25 26  1  0  0  0
 26 27  2  0  0  0
 27 28  1  0  0  0
 28 29  2  0  0  0
 29 30  1  0  0  0
 30 31  2  0  0  0
 31 32  1  0  0  0
  4  5  1  0  0  0
  5  6  1  0  0  0
  6  7  1  0  0  0
 12  8  1  0  0  0
  7  1  1  0  0  0
 22 17  1  0  0  0
 32 24  1  0  0  0
 32 27  1  0  0  0
 13 16  1  0  0  0
M  END
> <minimizedAffinity>
-8.36481

> <CNNaffinity>
-1.0000000000

$$$$
